19
Iteration:  1151
 C        -1.682296        -1.880603        -0.780943
 C        -1.272011        -0.443753        -0.951686
 C        -1.985013         0.497950        -1.782127
 C        -0.576337         0.179513        -2.105799
 C         0.348380         1.341828        -1.599456
 C         0.306279         0.987843        -0.063655
 O        -0.858518         0.266996         0.257376
 C         1.546160         0.095180         0.349444
 O         2.676382         0.440412         0.294616
 H        -2.262002        -1.937894         0.247792
 H        -2.378450        -2.231159        -1.555769
 H        -0.760296        -2.578502        -0.855833
 H        -2.827774         0.013350        -2.361686
 H        -2.353480         1.439378        -1.322534
 H        -0.422115        -0.405204        -3.025789
 H         1.267264         1.310997        -2.068571
 H        -0.128034         2.296203        -1.781828
 H         0.445385         1.877235         0.520528
 H         1.123549        -0.947307         0.776620
