19
Iteration:  3916charge 0 multiplicity 1
 C        -2.227747        -1.714653        -0.717717
 C        -1.398341        -0.486732        -1.056485
 C        -1.909242         0.687723        -1.904133
 C        -0.581991         0.122108        -2.286732
 C         0.746509         0.642279        -1.917464
 C         0.481587         0.748516        -0.236877
 O        -0.584356        -0.147717         0.060527
 C         1.654915         0.350069         0.514852
 O         2.346064         1.214320         1.071028
 H        -3.132838        -1.352344        -0.080473
 H        -2.626670        -2.220689        -1.607490
 H        -1.604456        -2.370810        -0.220839
 H        -2.673746         0.204593        -2.573490
 H        -2.065663         1.658707        -1.336269
 H        -0.665668        -0.352274        -3.274089
 H         1.493452        -0.058524        -2.179985
 H         0.915244         1.673606        -2.184404
 H         0.176863         1.835282         0.130535
 H         1.819348        -0.774279         0.687591
