19
Iteration:  4654charge 0 multiplicity 1
 C        -2.140381        -1.737410        -0.970261
 C        -1.361289        -0.458149        -1.059882
 C        -1.899455         0.639263        -1.889890
 C        -0.565209         0.073505        -2.222700
 C         0.725402         0.710461        -1.613086
 C         0.311092         0.892354        -0.204299
 O        -0.657797        -0.189161         0.164690
 C         1.485694         0.566877         0.758604
 O         2.581418         1.017230         0.647528
 H        -1.769160        -2.364480        -0.138806
 H        -3.305373        -1.592040        -0.827850
 H        -2.008860        -2.471793        -1.753431
 H        -2.623175         0.299693        -2.656880
 H        -2.075636         1.616600        -1.354050
 H        -0.339709        -0.635288        -3.105723
 H         1.571123         0.014321        -1.701799
 H         1.059418         1.674380        -2.016934
 H        -0.328518         1.853719        -0.082673
 H         1.386080        -0.388270         1.265517
