19
Iteration:  1569
 C        -1.460831        -1.910819        -0.746066
 C        -1.266302        -0.425590        -0.927046
 C        -2.118764         0.491954        -1.831283
 C        -0.588226         0.250245        -2.110737
 C         0.435066         1.262090        -1.545625
 C         0.279462         1.036478         0.034419
 O        -0.936402         0.336197         0.321474
 C         1.476469         0.071655         0.400347
 O         2.566390         0.360712         0.084327
 H        -2.421460        -2.165075        -0.474395
 H        -1.232228        -2.119236        -1.815004
 H        -0.673819        -2.473174        -0.129193
 H        -2.802623         0.150306        -2.577807
 H        -2.313177         1.529134        -1.549240
 H        -0.251843        -0.417860        -2.944096
 H         1.487112         1.048244        -1.845919
 H         0.335117         2.369523        -1.847772
 H         0.468927         1.987908         0.610838
 H         1.235760        -0.882852         0.984788
