19
Iteration:  2066
 C        -1.554551        -1.879473        -0.825300
 C        -1.246216        -0.435627        -0.871180
 C        -2.058576         0.484834        -1.816216
 C        -0.580131         0.259720        -2.104572
 C         0.386682         1.283292        -1.578600
 C         0.293615         1.062286        -0.023567
 O        -0.831923         0.201351         0.261890
 C         1.428735         0.270891         0.472687
 O         2.615795         0.261220         0.125443
 H        -2.506723        -2.060792        -0.284271
 H        -1.720551        -2.306523        -1.823481
 H        -0.820105        -2.480620        -0.269868
 H        -2.815967         0.122344        -2.505917
 H        -2.314853         1.460084        -1.445947
 H        -0.413438        -0.440913        -3.007408
 H         1.409249         1.441211        -1.869540
 H         0.041048         2.251395        -1.703676
 H         0.329398         2.055679         0.634907
 H         1.241507        -0.511470         1.227909
