19
Iteration:  1296
 C        -1.597277        -1.883496        -0.786966
 C        -1.346878        -0.408564        -1.011038
 C        -2.180928         0.508483        -1.872303
 C        -0.646783         0.331543        -2.130667
 C         0.403691         1.170854        -1.560155
 C         0.416034         0.796705         0.008245
 O        -0.949398         0.273216         0.246999
 C         1.600872         0.199078         0.558210
 O         2.718062         0.449708         0.164902
 H        -2.208793        -1.980522         0.105772
 H        -2.184294        -2.416504        -1.710626
 H        -0.514087        -2.328086        -0.566417
 H        -2.814953         0.080066        -2.633801
 H        -2.609664         1.436527        -1.586432
 H        -0.397540        -0.311716        -2.948184
 H         1.373994         0.956756        -1.958094
 H         0.390262         2.261422        -1.655237
 H         0.495386         1.845600         0.489070
 H         1.388846        -0.197782         1.597759
