19
Iteration:   464charge 0 multiplicity 1
 C        -1.580668        -1.923888        -0.641006
 C        -1.324880        -0.433667        -1.018347
 C        -2.107866         0.471803        -1.962566
 C        -0.626249         0.387303        -2.140460
 C         0.305878         1.290248        -1.456284
 C         0.370347         0.956376         0.042567
 O        -0.834669         0.308062         0.233251
 C         1.582379         0.231287         0.555481
 O         2.637530         0.190551         0.030461
 H        -2.392905        -2.051348        -0.004339
 H        -1.688419        -2.481875        -1.526570
 H        -0.694177        -2.326452        -0.197682
 H        -2.754147         0.040122        -2.815453
 H        -2.757133         1.378787        -1.617477
 H        -0.084593        -0.127558        -2.952966
 H         1.418010         1.253302        -2.005587
 H        -0.016349         2.372944        -1.642561
 H         0.305087         1.925034         0.609594
 H         1.395910        -0.232756         1.565002
