19
Iteration:   394charge 0 multiplicity 1
 C        -1.466035        -1.872383        -0.746177
 C        -1.366856        -0.323406        -0.880809
 C        -2.087808         0.493567        -1.934604
 C        -0.568738         0.226669        -2.052763
 C         0.299576         1.320204        -1.524419
 C         0.315643         1.035343        -0.036880
 O        -0.944538         0.360068         0.300860
 C         1.495007         0.104538         0.416182
 O         2.696082         0.188189         0.114949
 H        -1.961205        -2.563465        -0.000491
 H        -1.717620        -2.296121        -1.799973
 H        -0.391333        -2.145849        -0.602496
 H        -2.751141         0.057924        -2.652227
 H        -2.493474         1.443470        -1.594036
 H        -0.145684        -0.469388        -2.758577
 H         1.384939         1.338199        -1.960326
 H        -0.194323         2.294716        -1.782874
 H         0.504396         1.925625         0.593525
 H         1.289292        -0.683309         1.209738
