19
Iteration:  1078
 C        -1.455188        -1.910029        -0.724726
 C        -1.400028        -0.358438        -0.946941
 C        -2.134840         0.658508        -1.850783
 C        -0.675154         0.248117        -2.127288
 C         0.354281         1.152283        -1.543388
 C         0.349451         0.820276        -0.075474
 O        -0.958148         0.316892         0.187875
 C         1.582998         0.058735         0.522901
 O         2.717035         0.474912         0.181749
 H        -2.210591        -2.252018        -0.118401
 H        -1.387142        -2.407991        -1.694828
 H        -0.532771        -2.221668        -0.208259
 H        -2.876074         0.247318        -2.585373
 H        -2.475563         1.595643        -1.367424
 H        -0.421157        -0.329554        -3.049837
 H         1.474141         0.825624        -1.806846
 H         0.127665         2.256893        -1.872354
 H         0.334945         1.818143         0.599522
 H         1.365134        -0.741981         1.325090
