19
Iteration:   181
 C        -1.615105        -1.952329        -0.919069
 C        -1.435360        -0.425789        -0.938535
 C        -2.128270         0.542229        -1.849864
 C        -0.662311         0.290816        -2.061823
 C         0.515282         1.190049        -1.538002
 C         0.350734         0.895562         0.011082
 O        -0.887490         0.241380         0.285526
 C         1.643377         0.469183         0.659258
 O         2.661949         0.241471         0.041186
 H        -2.360062        -2.514820        -0.152687
 H        -2.294179        -2.223332        -1.839504
 H        -0.582210        -2.501690        -1.089042
 H        -2.876978         0.144509        -2.561495
 H        -2.605247         1.421200        -1.279023
 H        -0.425932        -0.144569        -3.012677
 H         1.435971         0.885311        -2.039982
 H         0.464471         2.330653        -1.785024
 H         0.294367         1.872873         0.582649
 H         1.543205         0.369724         1.783408
