19
Iteration:   594
 C        -1.503667        -1.836335        -0.814016
 C        -1.273074        -0.362911        -0.873363
 C        -2.169009         0.456913        -1.827959
 C        -0.592507         0.289597        -2.164339
 C         0.283978         1.298825        -1.598054
 C         0.370395         1.056990        -0.025928
 O        -0.829354         0.275521         0.308469
 C         1.522626         0.261549         0.509508
 O         2.635804         0.101970         0.144554
 H        -2.445721        -2.155763        -0.318669
 H        -1.679862        -2.213918        -1.854851
 H        -0.579771        -2.375756        -0.451998
 H        -2.800849        -0.286327        -2.414981
 H        -2.534653         1.482955        -1.567527
 H        -0.347955        -0.210105        -3.093713
 H         1.346319         1.206133        -1.985555
 H        -0.052820         2.245565        -1.936352
 H         0.331024         1.977333         0.593760
 H         1.202663        -0.203727         1.504707
