19
Iteration:  1977charge 0 multiplicity 1
 C        -1.479169        -1.901586        -0.817239
 C        -1.254204        -0.382128        -0.930415
 C        -2.064700         0.516206        -1.824169
 C        -0.507776         0.216741        -2.064427
 C         0.416058         1.229575        -1.496859
 C         0.283503         1.002869        -0.035195
 O        -0.918401         0.297183         0.302658
 C         1.381707         0.143657         0.448675
 O         2.575320         0.354364         0.056990
 H        -1.997846        -2.103774         0.065848
 H        -2.111849        -2.321576        -1.568956
 H        -0.429154        -2.322456        -0.531372
 H        -2.713982         0.179162        -2.608291
 H        -2.148691         1.482817        -1.323997
 H        -0.259101        -0.281435        -2.949522
 H         1.370049         0.923196        -1.960618
 H         0.301509         2.246791        -1.850355
 H         0.174033         1.922982         0.570217
 H         0.998330        -0.566448         1.226032
