19
Iteration:  3016charge 0 multiplicity 1
 C        -1.308861        -1.908653        -0.658179
 C        -1.320482        -0.398958        -0.989724
 C        -2.033111         0.519671        -1.913946
 C        -0.543110         0.291777        -2.143737
 C         0.468764         1.330338        -1.377006
 C         0.239409         0.965696         0.061454
 O        -0.993817         0.334718         0.300855
 C         1.456716         0.262690         0.540975
 O         2.442882         0.107397        -0.170117
 H        -2.285101        -2.351876        -0.731101
 H        -0.722975        -2.615909        -1.434198
 H        -0.862512        -1.977319         0.377943
 H        -2.726705        -0.024887        -2.504314
 H        -2.211153         1.541603        -1.633336
 H        -0.244277        -0.276366        -3.020814
 H         1.506106         1.244856        -1.774617
 H         0.186798         2.393863        -1.602102
 H         0.280833         1.994683         0.631112
 H         1.370185        -0.271816         1.540483
