19
Iteration:  2739charge 0 multiplicity 1
 C        -1.656968        -1.910743        -0.788282
 C        -1.336616        -0.356537        -0.956665
 C        -2.045606         0.465365        -1.995736
 C        -0.526154         0.237274        -2.074649
 C         0.379619         1.187263        -1.457000
 C         0.334852         0.972638         0.101128
 O        -0.928163         0.241760         0.283487
 C         1.553645         0.216928         0.538283
 O         2.657721         0.425958         0.008817
 H        -2.056329        -2.006969         0.259929
 H        -2.411516        -2.257951        -1.504289
 H        -0.736362        -2.412771        -0.931988
 H        -2.769110         0.042299        -2.739433
 H        -2.365373         1.459647        -1.589732
 H        -0.186746        -0.462412        -2.857009
 H         1.469089         0.947556        -1.784530
 H         0.320336         2.351979        -1.694728
 H         0.193590         1.886749         0.556871
 H         1.438338        -0.488931         1.389654
