19
Iteration:  1061
 C        -1.471537        -1.897816        -0.785096
 C        -1.410773        -0.433131        -0.999590
 C        -2.152454         0.550623        -1.809050
 C        -0.668340         0.243549        -2.055231
 C         0.556333         1.110119        -1.550480
 C         0.317596         1.004702         0.040132
 O        -0.960782         0.319539         0.255937
 C         1.492392         0.130063         0.441149
 O         2.696783         0.440886         0.137144
 H        -2.422164        -2.207296        -0.161782
 H        -1.620557        -2.466465        -1.743153
 H        -0.498941        -2.175456        -0.369248
 H        -2.790685         0.318982        -2.620382
 H        -2.369496         1.502797        -1.367260
 H        -0.486467        -0.231512        -3.018006
 H         1.452834         0.829331        -1.945758
 H         0.481212         2.141670        -1.744128
 H         0.211314         1.911210         0.539861
 H         1.307947        -0.795400         0.950731
