19
Iteration:  1918
 C        -1.568019        -1.832813        -0.708161
 C        -1.317724        -0.383076        -0.936558
 C        -2.131171         0.413402        -1.997470
 C        -0.570958         0.306787        -2.122252
 C         0.276411         1.414574        -1.483259
 C         0.364648         0.913453        -0.023690
 O        -0.912730         0.273312         0.226353
 C         1.566852         0.200765         0.559611
 O         2.755493         0.218684         0.097302
 H        -2.573953        -2.000758        -0.302962
 H        -1.225327        -2.358124        -1.612017
 H        -0.844906        -2.295725        -0.044088
 H        -2.803207        -0.205876        -2.624430
 H        -2.822818         1.223083        -1.735206
 H        -0.162927        -0.377171        -2.971568
 H         1.188389         1.449208        -2.043529
 H        -0.265383         2.326261        -1.466249
 H         0.137431         1.786488         0.758412
 H         1.457547        -0.331197         1.588413
