19
Iteration:   986
 C        -1.679754        -1.851141        -0.708816
 C        -1.302939        -0.370129        -1.036600
 C        -2.125673         0.469772        -2.009928
 C        -0.630708         0.261929        -2.185544
 C         0.285944         1.327038        -1.521847
 C         0.316994         0.921682        -0.012627
 O        -0.884686         0.140527         0.271099
 C         1.633434         0.398505         0.637459
 O         2.832927         0.223218         0.145882
 H        -2.379386        -1.949581         0.230379
 H        -2.196013        -2.355397        -1.540062
 H        -0.806869        -2.492173        -0.618735
 H        -2.648248        -0.039599        -2.782522
 H        -2.579732         1.359242        -1.652751
 H        -0.390359        -0.238230        -3.118165
 H         1.302985         1.389476        -1.792915
 H        -0.217844         2.418303        -1.567989
 H         0.292014         1.858743         0.728714
 H         1.496585        -0.183142         1.682315
