19
Iteration:  3900
 C        -2.143545        -1.667648        -0.819279
 C        -1.370343        -0.458361        -1.085940
 C        -1.978696         0.712248        -1.819702
 C        -0.661221         0.068158        -2.398069
 C         0.687841         0.546167        -1.792804
 C         0.473592         0.730811        -0.356387
 O        -0.627266        -0.130785         0.137546
 C         1.718898         0.398553         0.545199
 O         2.373032         1.243751         1.131663
 H        -2.676502        -1.524139         0.084472
 H        -2.862086        -1.915335        -1.704210
 H        -1.553162        -2.678413        -0.643042
 H        -2.825364         0.446567        -2.403098
 H        -1.956875         1.737909        -1.511331
 H        -0.599403        -0.490538        -3.339612
 H         1.431107        -0.394034        -1.958292
 H         1.173621         1.479457        -2.288280
 H         0.200945         1.748606        -0.124827
 H         2.023343        -0.671804         0.523134
