19
Iteration:  2223
 C        -1.434085        -1.822097        -0.765219
 C        -1.362756        -0.344657        -0.973071
 C        -2.148217         0.465985        -1.993656
 C        -0.657301         0.242063        -2.078749
 C         0.391963         1.241121        -1.449983
 C         0.301469         0.906794        -0.020617
 O        -0.981847         0.381909         0.331373
 C         1.557118        -0.049592         0.381435
 O         2.718401         0.446842         0.184034
 H        -2.098891        -1.870579         0.191522
 H        -1.820373        -2.292872        -1.690238
 H        -0.421632        -2.101188        -0.659653
 H        -2.800409        -0.084788        -2.712907
 H        -2.682803         1.350460        -1.636698
 H        -0.298676        -0.323396        -2.909748
 H         1.312130         0.951011        -1.900160
 H         0.204291         2.288468        -1.737057
 H         0.644799         1.676309         0.852336
 H         1.396853        -1.033971         0.946828
