19
Iteration:  1419charge 0 multiplicity 1
 C        -1.634738        -1.864145        -0.819448
 C        -1.310513        -0.381898        -0.970714
 C        -2.179038         0.515119        -1.934151
 C        -0.648531         0.255963        -2.154253
 C         0.373395         1.178489        -1.503535
 C         0.345027         0.941950        -0.027200
 O        -0.833817         0.167527         0.258466
 C         1.595965         0.362238         0.609385
 O         2.742408         0.335954         0.135592
 H        -2.636438        -2.143709        -0.336233
 H        -1.652348        -2.286773        -1.859244
 H        -0.877450        -2.236204        -0.084979
 H        -2.966196         0.130979        -2.525841
 H        -2.488494         1.358810        -1.358139
 H        -0.333851        -0.453704        -2.938456
 H         1.419332         1.095616        -1.882007
 H         0.027931         2.189014        -1.779513
 H         0.126041         1.900170         0.690960
 H         1.356488        -0.217933         1.552956
