19
Iteration:  4699
 C        -1.900776        -1.849278        -0.913687
 C        -1.396735        -0.416468        -1.079664
 C        -1.905899         0.667128        -1.998619
 C        -0.537701         0.042974        -2.198250
 C         0.675309         0.716087        -1.703305
 C         0.361253         0.802877        -0.069210
 O        -0.904942         0.016813         0.159163
 C         1.479781         0.467606         0.809352
 O         2.597734         0.953927         0.602436
 H        -1.063194        -2.506741        -1.252300
 H        -2.350222        -1.855517         0.138260
 H        -2.706238        -1.992698        -1.570561
 H        -2.670672         0.365443        -2.724405
 H        -1.881028         1.728606        -1.677620
 H        -0.504489        -0.727678        -2.997708
 H         1.656459         0.235143        -1.962836
 H         0.798113         1.688481        -2.125798
 H         0.046418         1.900046         0.288654
 H         1.290940        -0.042700         1.741651
