19
Iteration:  3744charge 0 multiplicity 1
 C        -2.246406        -1.752117        -1.029235
 C        -1.415552        -0.434092        -1.046211
 C        -1.851094         0.748684        -1.787133
 C        -0.596846         0.078990        -2.282516
 C         0.686580         0.570515        -1.673666
 C         0.386720         0.679822        -0.190429
 O        -0.684232        -0.269970         0.176623
 C         1.697780         0.458684         0.541165
 O         2.521405         1.341645         0.874386
 H        -3.161788        -1.642966        -0.360348
 H        -2.723154        -1.955310        -1.942481
 H        -1.541737        -2.559241        -0.615626
 H        -2.783588         0.630848        -2.420947
 H        -1.919324         1.729475        -1.276143
 H        -0.643828        -0.528807        -3.163689
 H         1.512897        -0.179597        -1.992787
 H         1.059744         1.534097        -1.985914
 H         0.063359         1.719265        -0.017921
 H         1.820711        -0.599040         0.788563
