19
Iteration:  4829
 C        -1.881720        -1.909016        -0.925819
 C        -1.263530        -0.424454        -0.992472
 C        -1.873282         0.369358        -2.074057
 C        -0.416263         0.034767        -2.173260
 C         0.689632         0.894277        -1.684842
 C         0.330929         1.033269        -0.088994
 O        -0.995097         0.327329         0.177935
 C         1.382065         0.436018         0.804723
 O         2.543382         0.696513         0.587183
 H        -2.950062        -1.922510        -1.036769
 H        -1.534703        -2.404890        -1.947682
 H        -1.723920        -2.436972        -0.017654
 H        -2.564644        -0.093881        -2.805745
 H        -2.072964         1.361680        -1.685044
 H        -0.147899        -0.697836        -2.873356
 H         1.722541         0.494156        -1.758489
 H         0.658304         1.916842        -2.056886
 H         0.116937         1.989989         0.203200
 H         1.111294        -0.296324         1.557495
