19
Iteration:  4891charge 0 multiplicity 1
 C        -1.767473        -1.795132        -0.714430
 C        -1.316941        -0.385515        -1.071500
 C        -1.862625         0.400008        -2.266297
 C        -0.347390         0.053971        -2.216940
 C         0.576330         0.992988        -1.542486
 C         0.269145         1.025928        -0.090236
 O        -0.903037         0.163465         0.090316
 C         1.315641         0.432681         0.779875
 O         2.545293         0.589146         0.619467
 H        -1.898636        -1.681725         0.407536
 H        -2.712647        -2.123630        -1.166517
 H        -1.043879        -2.610600        -1.094630
 H        -2.549096        -0.163352        -2.974347
 H        -2.237656         1.446447        -2.157326
 H        -0.018241        -0.768056        -2.928164
 H         1.520577         0.568348        -1.773105
 H         0.416010         2.025779        -2.003238
 H         0.109666         2.125361         0.346971
 H         0.742383        -0.067120         1.648846
