19
Iteration:  1087charge 0 multiplicity 1
 C        -1.455224        -1.838781        -0.734223
 C        -1.395030        -0.396655        -0.987862
 C        -2.121594         0.576755        -1.888698
 C        -0.750280         0.267712        -2.169451
 C         0.348667         1.186174        -1.587601
 C         0.382496         0.773360        -0.064407
 O        -0.927304         0.312770         0.266816
 C         1.589532         0.091113         0.513825
 O         2.708703         0.454025         0.224626
 H        -2.380766        -2.107041        -0.206059
 H        -1.547457        -2.457038        -1.613569
 H        -0.471037        -2.084575        -0.194116
 H        -3.004908         0.268746        -2.526472
 H        -2.271699         1.555887        -1.359138
 H        -0.325549        -0.431701        -2.903009
 H         1.329928         1.062199        -2.214186
 H         0.232437         2.393509        -1.523721
 H         0.374880         1.705580         0.573073
 H         1.378923        -0.601705         1.312964
