19
Iteration:  1362charge 0 multiplicity 1
 C        -1.711649        -1.826141        -0.842541
 C        -1.235307        -0.418720        -0.924464
 C        -2.057392         0.501501        -1.786011
 C        -0.582793         0.161488        -2.135493
 C         0.354822         1.292370        -1.607271
 C         0.309401         1.041011        -0.046832
 O        -0.795191         0.143050         0.254791
 C         1.509583         0.250485         0.545466
 O         2.649800         0.373710         0.170208
 H        -2.415350        -1.913656        -0.035138
 H        -2.081053        -2.440554        -1.740044
 H        -0.798004        -2.512038        -0.625457
 H        -2.812652         0.097567        -2.433076
 H        -2.188496         1.517383        -1.530046
 H        -0.301132        -0.406950        -3.023187
 H         1.381923         1.188442        -1.843051
 H        -0.015184         2.226265        -1.953198
 H         0.215806         1.920194         0.774301
 H         1.308635        -0.482952         1.364261
