19
Iteration:  1373charge 0 multiplicity 1
 C        -1.700642        -1.883498        -0.812831
 C        -1.272201        -0.461255        -1.034097
 C        -2.103299         0.463464        -1.826998
 C        -0.592082         0.224228        -2.140767
 C         0.328495         1.298715        -1.526821
 C         0.364668         1.009892        -0.039592
 O        -0.785171         0.153476         0.235050
 C         1.571147         0.296840         0.571172
 O         2.694928         0.346479         0.186426
 H        -2.550137        -1.724819        -0.157747
 H        -2.213618        -2.193610        -1.802027
 H        -0.960880        -2.459593        -0.163706
 H        -2.948601         0.071200        -2.346315
 H        -2.198324         1.452193        -1.482325
 H        -0.300661        -0.368973        -3.014890
 H         1.234524         1.202951        -2.054746
 H         0.003649         2.310996        -1.659850
 H         0.122530         2.130363         0.441546
 H         1.118364        -0.321465         1.403713
