19
Iteration:   655
 C        -1.377889        -1.799636        -0.653485
 C        -1.299114        -0.323697        -0.971274
 C        -2.111425         0.535098        -1.965983
 C        -0.623381         0.293140        -2.161802
 C         0.370772         1.276972        -1.535084
 C         0.326237         0.976603         0.072183
 O        -0.957656         0.216686         0.274136
 C         1.528298         0.145682         0.535129
 O         2.586973         0.207485         0.007319
 H        -2.065970        -2.036736         0.194906
 H        -1.830177        -2.353094        -1.568198
 H        -0.467186        -2.222027        -0.285472
 H        -3.002557         0.169695        -2.550491
 H        -2.230146         1.533251        -1.492406
 H        -0.116978        -0.308609        -2.929243
 H         1.365074         0.997987        -1.900327
 H        -0.085003         2.366355        -1.739883
 H         0.336901         1.901378         0.711930
 H         1.263717        -0.602281         1.400885
