19
Iteration:   942
 C        -1.566901        -1.910957        -0.857164
 C        -1.276241        -0.423216        -0.874836
 C        -1.973663         0.541146        -1.806809
 C        -0.533876         0.250636        -2.116059
 C         0.494397         1.150306        -1.526982
 C         0.220175         1.098364        -0.027556
 O        -0.895512         0.194402         0.348143
 C         1.465887         0.307103         0.530012
 O         2.548857         0.293414         0.009245
 H        -2.500780        -2.072007        -0.208010
 H        -1.876022        -2.310214        -1.823023
 H        -0.721970        -2.429180        -0.514531
 H        -2.809664         0.304625        -2.421252
 H        -2.217563         1.416342        -1.260373
 H        -0.212746        -0.335190        -3.001344
 H         1.461733         1.023159        -1.892946
 H         0.108100         2.168632        -1.990169
 H         0.120543         2.178482         0.445781
 H         1.240647        -0.427215         1.291283
