19
Iteration:  3262charge 0 multiplicity 1
 C        -1.505623        -1.892396        -0.860094
 C        -1.292850        -0.359149        -0.939800
 C        -2.052786         0.507685        -1.902261
 C        -0.581118         0.189299        -2.141400
 C         0.454491         1.181120        -1.509487
 C         0.234530         1.058096        -0.016626
 O        -0.902171         0.281084         0.258141
 C         1.474439         0.145813         0.555565
 O         2.576280         0.403848         0.164617
 H        -0.615154        -2.447921        -1.296641
 H        -1.560657        -2.148489         0.199850
 H        -2.423415        -2.252391        -1.256929
 H        -2.872480         0.106832        -2.523859
 H        -2.116111         1.534332        -1.606065
 H        -0.228548        -0.587229        -2.844253
 H         1.454535         0.735829        -1.674821
 H         0.396476         2.242895        -1.924100
 H         0.114516         1.855773         0.654714
 H         1.289568        -0.471474         1.465095
