19
Iteration:  3516charge 0 multiplicity 1
 C        -1.738632        -1.899238        -0.908367
 C        -1.351818        -0.435803        -1.073502
 C        -2.105703         0.645364        -1.865643
 C        -0.719056         0.180796        -2.265867
 C         0.589488         0.954079        -1.645556
 C         0.399170         0.985287        -0.095492
 O        -0.813880         0.004406         0.172863
 C         1.489913         0.445960         0.831126
 O         2.679803         0.600377         0.416369
 H        -1.073367        -2.270828        -0.102574
 H        -2.716687        -2.121581        -0.570992
 H        -1.569477        -2.482797        -1.891499
 H        -2.942338         0.450502        -2.591159
 H        -2.316650         1.534524        -1.216455
 H        -0.503839        -0.455744        -3.176606
 H         1.495418         0.360373        -1.802683
 H         0.705540         2.021119        -1.899660
 H         0.092803         2.066826         0.354986
 H         1.221181         0.190125         1.939952
