19
Iteration:  2061charge 0 multiplicity 1
 C        -1.562039        -1.881385        -0.831194
 C        -1.254881        -0.390904        -0.913748
 C        -2.042274         0.476402        -1.834929
 C        -0.612524         0.211266        -2.116283
 C         0.364920         1.310064        -1.536140
 C         0.311326         1.068945        -0.033855
 O        -0.812242         0.217547         0.252643
 C         1.505701         0.255394         0.489982
 O         2.596038         0.255134         0.147534
 H        -2.468766        -1.928357        -0.216098
 H        -1.785264        -2.382644        -1.781344
 H        -0.798302        -2.610204        -0.340958
 H        -2.857812         0.033059        -2.425168
 H        -2.373599         1.411283        -1.320084
 H        -0.313898        -0.398317        -2.896886
 H         1.356496         1.381256        -2.119615
 H        -0.148872         2.360207        -1.656584
 H         0.200746         1.952776         0.603324
 H         1.135388        -0.495163         1.252778
