19
Iteration:  3085
 C        -1.364773        -1.952864        -0.815966
 C        -1.212017        -0.360163        -0.792820
 C        -2.111615         0.346690        -1.877050
 C        -0.565256         0.267423        -2.046088
 C         0.258029         1.493473        -1.571940
 C         0.361748         1.098202        -0.065592
 O        -0.892576         0.429316         0.289218
 C         1.471184         0.191374         0.474050
 O         2.554142        -0.019319         0.093047
 H        -2.449212        -2.147472        -0.959538
 H        -0.889047        -2.342592        -1.617005
 H        -1.083648        -2.384189         0.076975
 H        -2.675905        -0.206788        -2.697045
 H        -2.488175         1.348775        -1.569007
 H        -0.222052        -0.090531        -3.027581
 H         1.237463         1.753335        -2.029610
 H        -0.326433         2.484417        -1.534908
 H         0.267670         2.055960         0.631204
 H         1.001474        -0.561358         1.147843
