19
Iteration:   408charge 0 multiplicity 1
 C        -1.380358        -1.946484        -0.797665
 C        -1.366389        -0.378857        -0.821755
 C        -2.031434         0.547981        -1.917410
 C        -0.622570         0.183196        -1.997488
 C         0.324996         1.332857        -1.609333
 C         0.375536         0.998576        -0.022360
 O        -0.907167         0.385173         0.326948
 C         1.459114         0.102890         0.470254
 O         2.580801         0.235256         0.070716
 H        -2.206494        -2.103886        -0.229544
 H        -1.612508        -2.294601        -1.791477
 H        -0.484776        -2.395660        -0.518077
 H        -2.844001         0.220402        -2.683396
 H        -2.053185         1.708677        -1.597417
 H        -0.253514        -0.573900        -2.700819
 H         1.384041         1.359287        -2.207214
 H        -0.096922         2.373080        -1.708435
 H         0.305940         1.956946         0.533982
 H         0.976287        -0.773807         1.083501
