19
Iteration:  4225charge 0 multiplicity 1
 C        -1.930096        -1.845789        -0.785393
 C        -1.382678        -0.435634        -1.092419
 C        -2.065269         0.637985        -1.945809
 C        -0.664806         0.071494        -2.337021
 C         0.626102         0.782641        -1.806705
 C         0.359071         0.884097        -0.212787
 O        -0.716473         0.110972         0.091899
 C         1.543323         0.366810         0.682111
 O         2.658673         0.858554         0.926765
 H        -2.806653        -1.997852        -1.270433
 H        -1.107014        -2.485583        -0.949396
 H        -2.135277        -1.903485         0.338599
 H        -2.836975         0.259138        -2.593188
 H        -2.166170         1.566881        -1.393512
 H        -0.603650        -0.631039        -3.217408
 H         1.592353         0.280596        -2.015310
 H         0.787120         1.779034        -2.324003
 H         0.112791         2.068846        -0.062972
 H         1.271347        -0.490440         1.371233
