19
Iteration:  3567
 C        -1.871039        -1.879409        -1.094570
 C        -1.345083        -0.455297        -1.047745
 C        -1.958256         0.654931        -1.804867
 C        -0.614134         0.076571        -2.115229
 C         0.621724         0.820086        -1.668021
 C         0.252382         0.951806        -0.023818
 O        -0.739428         0.006598         0.199406
 C         1.527629         0.606837         0.891571
 O         2.562629         0.676013         0.323135
 H        -1.111694        -2.535249        -1.721015
 H        -1.981862        -2.143726        -0.040129
 H        -2.909008        -1.888162        -1.556764
 H        -2.775239         0.404286        -2.464196
 H        -1.969731         1.592150        -1.323669
 H        -0.381996        -0.447690        -3.053052
 H         1.487039         0.183346        -1.789882
 H         0.785295         1.840580        -1.950240
 H        -0.017838         2.028051         0.167219
 H         1.351625         0.226111         1.919655
