19
Iteration:   967
 C        -1.679585        -1.857245        -0.813832
 C        -1.292842        -0.383604        -0.940221
 C        -2.140454         0.394822        -1.943096
 C        -0.603614         0.303617        -2.100864
 C         0.384739         1.287564        -1.465854
 C         0.340169         0.995720         0.011774
 O        -0.803242         0.165946         0.199257
 C         1.535580         0.288528         0.650798
 O         2.665740         0.290980         0.062359
 H        -2.346408        -1.839372        -0.008686
 H        -2.199917        -2.393019        -1.547593
 H        -0.726282        -2.318785        -0.480251
 H        -2.842565        -0.092223        -2.646712
 H        -2.482421         1.438517        -1.730287
 H        -0.185786        -0.199875        -2.938886
 H         1.422886         1.048633        -1.965581
 H         0.176559         2.328486        -1.956557
 H         0.328555         1.871927         0.819261
 H         1.533127        -0.027444         1.670292
