19
Iteration:  1284charge 0 multiplicity 1
 C        -1.602627        -1.878699        -0.750098
 C        -1.378788        -0.383761        -0.993413
 C        -2.198444         0.519204        -1.897390
 C        -0.687922         0.275526        -2.142958
 C         0.426603         1.253675        -1.555890
 C         0.322317         0.922628        -0.085612
 O        -0.833502         0.226028         0.219242
 C         1.633094         0.195663         0.573266
 O         2.738534         0.395769         0.229494
 H        -2.367656        -2.080213         0.003528
 H        -1.951766        -2.400050        -1.750598
 H        -0.661031        -2.508028        -0.438286
 H        -2.812633        -0.062720        -2.585666
 H        -2.582276         1.406703        -1.372196
 H        -0.411909        -0.224986        -3.058667
 H         1.334988         0.992007        -1.978646
 H         0.133979         2.226789        -1.818875
 H         0.300030         1.763158         0.710571
 H         1.375486        -0.421394         1.522194
