19
Iteration:  3174
 C        -1.525205        -1.891214        -0.850300
 C        -1.348213        -0.371876        -0.861125
 C        -1.942487         0.406806        -1.922297
 C        -0.489077         0.192168        -2.083651
 C         0.362862         1.376323        -1.468684
 C         0.268892         1.063251         0.008152
 O        -0.921870         0.325602         0.351477
 C         1.419171         0.158673         0.455325
 O         2.613658         0.234688         0.023852
 H        -1.494959        -2.162524         0.229765
 H        -2.409710        -2.297633        -1.149127
 H        -0.639315        -2.321836        -1.204913
 H        -2.678960        -0.150892        -2.529010
 H        -2.345412         1.442611        -1.686604
 H        -0.057435        -0.387665        -2.966584
 H         1.420386         1.414368        -1.825782
 H        -0.072566         2.381095        -1.820791
 H         0.180172         2.030243         0.649559
 H         1.078821        -0.636394         1.158736
