19
Iteration:   757charge 0 multiplicity 1
 C        -1.458116        -1.841332        -0.640235
 C        -1.363887        -0.354954        -0.952193
 C        -2.064653         0.477269        -2.007245
 C        -0.561490         0.304014        -2.128109
 C         0.255466         1.393839        -1.416805
 C         0.339416         0.983918         0.035003
 O        -0.933914         0.249496         0.260296
 C         1.506513         0.179082         0.474722
 O         2.695999         0.135934         0.007246
 H        -2.439383        -2.116768        -0.148380
 H        -1.448721        -2.532853        -1.500563
 H        -0.614465        -2.161098         0.092954
 H        -2.627931        -0.074915        -2.721107
 H        -2.465257         1.416005        -1.632382
 H        -0.054710        -0.189544        -2.977205
 H         1.208436         1.374699        -1.933006
 H        -0.175189         2.516160        -1.580079
 H         0.315724         1.885822         0.611608
 H         1.271231        -0.505556         1.309072
