19
Iteration:  1860charge 0 multiplicity 1
 C        -1.472055        -1.890978        -0.780406
 C        -1.211735        -0.388534        -0.919377
 C        -2.030886         0.480948        -1.893910
 C        -0.515186         0.152429        -2.101237
 C         0.397256         1.341350        -1.508711
 C         0.280543         1.081715         0.032563
 O        -0.898555         0.312820         0.350377
 C         1.343692         0.145267         0.439887
 O         2.526161         0.272167        -0.010566
 H        -2.163695        -2.176551         0.074239
 H        -2.021952        -2.267187        -1.634975
 H        -0.600836        -2.380941        -0.661868
 H        -2.541575        -0.038463        -2.663857
 H        -2.349695         1.351377        -1.350829
 H        -0.019931        -0.405121        -2.845725
 H         1.449560         1.296989        -1.675440
 H         0.085496         2.373441        -1.741664
 H         0.310341         1.954892         0.782029
 H         1.307702        -0.646898         1.239718
