19
Iteration:   868charge 0 multiplicity 1
 C        -1.589319        -1.873744        -0.746326
 C        -1.295804        -0.465934        -1.030449
 C        -2.170982         0.332533        -1.898179
 C        -0.675129         0.396155        -2.102471
 C         0.365701         1.394112        -1.510860
 C         0.351622         1.061277        -0.007219
 O        -0.890158         0.276191         0.151007
 C         1.597121         0.310465         0.612567
 O         2.747599         0.082390         0.154868
 H        -2.254595        -1.887926         0.111118
 H        -1.999584        -2.385673        -1.572222
 H        -0.577388        -2.291239        -0.462756
 H        -2.649645        -0.170880        -2.729453
 H        -2.697163         1.169584        -1.517582
 H        -0.397050        -0.057221        -3.060372
 H         1.313737         1.212169        -2.108553
 H        -0.058523         2.455314        -1.473934
 H         0.219293         1.963208         0.598935
 H         1.391626        -0.124404         1.700148
