19
Iteration:  2744
 C        -1.628750        -1.871006        -0.804538
 C        -1.410814        -0.369615        -0.913750
 C        -2.026018         0.449187        -1.982810
 C        -0.516977         0.226948        -2.080087
 C         0.412067         1.217795        -1.470183
 C         0.308818         0.962438         0.067698
 O        -0.915475         0.249057         0.301094
 C         1.598554         0.204005         0.551174
 O         2.597658         0.433575        -0.006721
 H        -2.005678        -2.088459         0.180914
 H        -2.374486        -2.165778        -1.576974
 H        -0.730088        -2.559382        -0.949745
 H        -2.726392         0.176592        -2.746020
 H        -2.226488         1.448587        -1.645166
 H         0.058453        -0.479318        -2.687810
 H         1.331381         0.761959        -1.790070
 H         0.275443         2.241341        -1.735758
 H         0.144373         1.963461         0.652706
 H         1.494983        -0.566658         1.364774
