19
Iteration:   672
 C        -1.407576        -1.772345        -0.668447
 C        -1.365949        -0.319398        -0.996632
 C        -2.084048         0.562808        -1.978072
 C        -0.592666         0.231848        -2.083870
 C         0.368250         1.231924        -1.399128
 C         0.251186         0.918008         0.089082
 O        -0.925213         0.274975         0.259793
 C         1.552761         0.114376         0.480247
 O         2.585036         0.242170        -0.049950
 H        -1.994609        -1.835300         0.266993
 H        -1.600776        -2.471230        -1.437299
 H        -0.291569        -1.955334        -0.399275
 H        -2.548534         0.082864        -2.788616
 H        -2.560607         1.502145        -1.785872
 H        -0.370643        -0.377183        -2.976217
 H         1.465254         1.144424        -1.689546
 H         0.098590         2.182396        -1.656443
 H         0.173249         1.869146         0.640238
 H         1.403888        -0.539996         1.332890
