19
Iteration:  4736
 C        -1.919463        -1.852346        -0.994225
 C        -1.325394        -0.487669        -1.016572
 C        -1.965070         0.534901        -2.000350
 C        -0.531544         0.029528        -2.198307
 C         0.665503         0.786418        -1.701208
 C         0.283308         1.066153        -0.095207
 O        -0.821152         0.131872         0.192217
 C         1.449356         0.529414         0.744286
 O         2.658841         0.769963         0.703619
 H        -1.649493        -2.802931        -1.706611
 H        -1.695619        -2.405029        -0.134297
 H        -3.090483        -1.714253        -0.990344
 H        -2.645851         0.099251        -2.709759
 H        -2.196961         1.572038        -1.817994
 H        -0.310407        -0.606338        -3.060250
 H         1.472252         0.051343        -1.841566
 H         0.854694         1.670206        -2.393989
 H         0.011101         2.123386         0.254485
 H         0.979318        -0.192494         1.416177
