19
Iteration:  4730
 C        -1.918007        -1.866646        -1.020010
 C        -1.348655        -0.432437        -1.053103
 C        -1.932908         0.516716        -2.012039
 C        -0.593061         0.041119        -2.173182
 C         0.631469         0.721607        -1.670081
 C         0.352788         1.071690        -0.079103
 O        -0.807689         0.127428         0.201176
 C         1.466984         0.549414         0.729204
 O         2.630016         0.787713         0.692600
 H        -1.553037        -2.543450        -1.707006
 H        -1.823539        -2.447474        -0.023711
 H        -2.946845        -1.806090        -1.262703
 H        -2.651090         0.075631        -2.728745
 H        -1.999149         1.611511        -1.753443
 H        -0.314274        -0.790773        -2.897138
 H         1.479606         0.052246        -1.844850
 H         0.709602         1.685789        -2.198516
 H        -0.037975         2.052178         0.194692
 H         1.086308        -0.246773         1.469335
