19
Iteration:  4717charge 0 multiplicity 1
 C        -1.915924        -1.838192        -1.028650
 C        -1.425215        -0.410519        -0.966637
 C        -1.967038         0.589567        -2.041339
 C        -0.516423        -0.059149        -2.193644
 C         0.619849         0.764096        -1.597423
 C         0.304119         0.918790        -0.187510
 O        -0.792398         0.114212         0.189136
 C         1.477721         0.503040         0.808100
 O         2.642189         0.863569         0.646484
 H        -1.133738        -2.352476        -1.561148
 H        -1.885518        -2.246968        -0.011852
 H        -2.941516        -1.989041        -1.455534
 H        -2.832569         0.321721        -2.676693
 H        -2.086435         1.661797        -1.692008
 H        -0.397533        -0.825177        -3.056063
 H         1.551157         0.237377        -1.659764
 H         0.904775         1.765739        -2.082049
 H         0.204156         1.944655        -0.067069
 H         1.102281        -0.274412         1.584678
