19
Iteration:   857charge 0 multiplicity 1
 C        -1.545615        -1.942003        -0.742264
 C        -1.265900        -0.438156        -1.022727
 C        -2.149166         0.436633        -1.891443
 C        -0.630217         0.323539        -2.162611
 C         0.250255         1.439540        -1.519136
 C         0.436065         1.007535        -0.052181
 O        -0.882059         0.307233         0.217506
 C         1.558375         0.280990         0.619282
 O         2.679119         0.099283         0.161904
 H        -2.159172        -1.988877         0.158184
 H        -2.068520        -2.481017        -1.482934
 H        -0.633107        -2.590971        -0.473703
 H        -2.742084        -0.063025        -2.647775
 H        -2.548128         1.302277        -1.443164
 H        -0.220855        -0.120827        -3.086530
 H         1.283579         1.437690        -2.031846
 H        -0.090367         2.477424        -1.899927
 H         0.420632         1.859584         0.625849
 H         1.166063        -0.152744         1.650248
