19
Iteration:  2316
 C        -1.645761        -1.853262        -0.754494
 C        -1.303421        -0.398941        -0.917963
 C        -2.075674         0.492592        -1.927392
 C        -0.638886         0.263854        -2.124179
 C         0.319795         1.282681        -1.519552
 C         0.369664         0.909846        -0.018561
 O        -0.861848         0.182948         0.233429
 C         1.533034         0.243568         0.576921
 O         2.739970         0.357447         0.117878
 H        -2.429505        -1.980229        -0.157068
 H        -1.816531        -2.289521        -1.775724
 H        -0.744662        -2.417682        -0.356379
 H        -2.813918        -0.016423        -2.578014
 H        -2.483118         1.486621        -1.694302
 H        -0.303967        -0.239857        -3.032122
 H         1.375566         1.189300        -1.980476
 H         0.036705         2.387100        -1.527669
 H         0.056037         1.902787         0.469495
 H         1.377288        -0.468896         1.423607
