19
Iteration:  1962
 C        -1.471922        -1.918247        -0.780864
 C        -1.313170        -0.412076        -0.903735
 C        -1.996845         0.521268        -1.814882
 C        -0.596759         0.213645        -2.038842
 C         0.489274         1.260999        -1.568079
 C         0.257615         1.071153         0.014346
 O        -0.916341         0.288803         0.273150
 C         1.413291         0.170355         0.426136
 O         2.550561         0.325273         0.060335
 H        -2.322612        -2.193163        -0.128619
 H        -1.624638        -2.245999        -1.823713
 H        -0.585384        -2.520523        -0.623864
 H        -2.716743         0.111176        -2.578105
 H        -2.320764         1.490605        -1.426162
 H        -0.300157        -0.450540        -2.888359
 H         1.547339         1.043900        -1.557439
 H         0.167621         2.224425        -1.855679
 H         0.396594         2.068514         0.645286
 H         1.230060        -0.748655         1.080952
