19
Iteration:  2656
 C        -1.488996        -1.937078        -0.872032
 C        -1.372077        -0.371984        -0.933166
 C        -2.265867         0.564470        -1.809618
 C        -0.678053         0.244950        -2.117643
 C         0.386418         1.153843        -1.642444
 C         0.406236         0.968634        -0.094815
 O        -0.877125         0.319807         0.306444
 C         1.542811         0.150335         0.464811
 O         2.778313         0.394159         0.314249
 H        -2.495947        -2.111621        -0.499048
 H        -1.434917        -2.406270        -1.961917
 H        -0.855029        -2.540352        -0.076302
 H        -2.945942         0.074086        -2.479749
 H        -2.462505         1.539939        -1.401895
 H        -0.628071        -0.228369        -3.079860
 H         1.347233         0.869747        -2.016020
 H         0.201124         2.158172        -1.818421
 H         0.305129         2.027752         0.441298
 H         1.193643        -0.593048         1.216647
