19
Iteration:  1469charge 0 multiplicity 1
 C        -1.572203        -1.920283        -0.832569
 C        -1.285820        -0.424840        -0.924582
 C        -2.052766         0.536486        -1.790389
 C        -0.537201         0.212861        -2.076183
 C         0.432183         1.158261        -1.519509
 C         0.267956         1.077232        -0.002860
 O        -0.882656         0.230144         0.261120
 C         1.506510         0.234844         0.498553
 O         2.577409         0.381177         0.079692
 H        -2.095436        -1.999460         0.058566
 H        -2.265676        -2.216323        -1.655912
 H        -0.614888        -2.470512        -0.815514
 H        -2.666144         0.149001        -2.655464
 H        -2.296184         1.547630        -1.428402
 H        -0.403871        -0.152305        -3.116926
 H         1.434561         0.799534        -1.736863
 H         0.237463         2.172003        -1.929329
 H         0.190338         1.914651         0.547083
 H         1.262274        -0.533041         1.241696
