19
Iteration:  1500
 C        -1.588438        -1.866047        -0.731387
 C        -1.357206        -0.364209        -0.976035
 C        -2.203930         0.419897        -1.956383
 C        -0.575853         0.278771        -2.168275
 C         0.348844         1.340289        -1.505065
 C         0.368063         0.934618        -0.044844
 O        -0.868113         0.172682         0.248619
 C         1.536088         0.221481         0.597801
 O         2.774446         0.308946         0.145006
 H        -1.994499        -1.709665         0.279812
 H        -2.319159        -2.335423        -1.392062
 H        -0.685515        -2.447954        -0.731272
 H        -2.798085         0.033008        -2.861365
 H        -2.507143         1.462762        -1.679940
 H        -0.324173        -0.193393        -3.134927
 H         1.418647         1.397113        -1.913385
 H        -0.206955         2.325392        -1.686056
 H         0.277312         1.758650         0.798141
 H         1.317234        -0.095960         1.620032
