19
Iteration:  4140charge 0 multiplicity 1
 C        -2.075140        -1.773492        -1.002612
 C        -1.365672        -0.476309        -1.034907
 C        -1.830733         0.678442        -1.861319
 C        -0.516176         0.041356        -2.239613
 C         0.750774         0.690159        -1.546081
 C         0.294475         0.895084        -0.049517
 O        -0.683188        -0.165962         0.205540
 C         1.399558         0.742539         0.862035
 O         2.490428         0.814049         0.328649
 H        -2.630880        -2.053926        -1.890829
 H        -1.285645        -2.663640        -0.831751
 H        -2.967335        -1.783785        -0.173668
 H        -2.723523         0.717047        -2.445712
 H        -1.773064         1.696733        -1.492404
 H        -0.265228        -0.436656        -3.219203
 H         1.675426         0.094224        -1.705463
 H         1.039654         1.679710        -2.078329
 H        -0.015940         1.900983         0.025603
 H         1.153780         0.391831         1.926042
