19
Iteration:  1588charge 0 multiplicity 1
 C        -1.396198        -1.882008        -0.768759
 C        -1.388112        -0.370206        -0.923919
 C        -2.056172         0.520728        -1.916061
 C        -0.617566         0.294490        -2.052037
 C         0.429261         1.201016        -1.456022
 C         0.318737         0.917303         0.038402
 O        -1.010895         0.365163         0.255556
 C         1.519259         0.111658         0.405905
 O         2.606501         0.354277         0.037753
 H        -2.295429        -2.102224        -0.264573
 H        -1.189294        -2.656160        -1.536141
 H        -0.637587        -2.027470        -0.055041
 H        -2.714424        -0.030914        -2.595807
 H        -2.494588         1.411373        -1.395055
 H        -0.253546        -0.315433        -2.932230
 H         1.431600         0.916338        -1.747837
 H         0.116387         2.212442        -1.641908
 H         0.336808         1.875766         0.760965
 H         1.453957        -0.816642         0.967914
