19
Iteration:  2437
 C        -1.636119        -1.847820        -0.798330
 C        -1.302784        -0.375387        -0.987316
 C        -2.194244         0.498300        -1.796929
 C        -0.711185         0.260994        -2.152757
 C         0.337328         1.220625        -1.644302
 C         0.337740         0.946650        -0.091688
 O        -0.735180         0.153460         0.192253
 C         1.598350         0.338046         0.616045
 O         2.737445         0.299622         0.293312
 H        -2.528641        -1.999821        -0.386303
 H        -1.669819        -2.332044        -1.849283
 H        -0.853872        -2.531022        -0.366616
 H        -2.911349         0.021816        -2.483534
 H        -2.627571         1.471411        -1.460426
 H        -0.640181        -0.262188        -3.096567
 H         1.341025         1.240533        -2.166147
 H         0.023982         2.287806        -1.742313
 H         0.394358         1.820900         0.577222
 H         1.300486         0.017399         1.660627
