19
Iteration:   423
 C        -1.449586        -1.840602        -0.795357
 C        -1.240394        -0.370310        -0.896386
 C        -2.061815         0.513657        -1.807709
 C        -0.556470         0.197342        -2.106700
 C         0.364544         1.240807        -1.513741
 C         0.306770         1.053446        -0.016388
 O        -0.897430         0.365825         0.297579
 C         1.427648         0.102212         0.418382
 O         2.544774         0.248711         0.054067
 H        -2.317689        -2.269227        -0.224942
 H        -1.483143        -2.232186        -1.797914
 H        -0.573319        -2.264147        -0.216393
 H        -2.771398        -0.021932        -2.399983
 H        -2.315095         1.465004        -1.405283
 H        -0.336512        -0.378443        -3.029716
 H         1.325581         1.061483        -1.751369
 H         0.007390         2.217446        -1.817372
 H         0.463589         1.948287         0.598508
 H         1.153817        -0.628188         1.219859
