19
Iteration:  3677
 C        -1.997451        -1.812573        -1.091274
 C        -1.431669        -0.482444        -1.001919
 C        -1.915914         0.770280        -1.732834
 C        -0.634515         0.092082        -2.209327
 C         0.636477         0.622511        -1.723731
 C         0.387211         0.816133        -0.210506
 O        -0.658305        -0.095342         0.111406
 C         1.518981         0.462463         0.753868
 O         2.539518         1.069872         0.674896
 H        -3.081097        -1.885470        -1.395793
 H        -1.571951        -2.500571        -1.726390
 H        -1.875185        -2.140125        -0.061509
 H        -2.853053         0.806268        -2.283947
 H        -1.923809         1.726900        -1.165390
 H        -0.610482        -0.728861        -2.944032
 H         1.457942        -0.081327        -1.650668
 H         0.974993         1.519404        -2.213319
 H         0.272666         1.869078         0.108217
 H         1.362729        -0.300227         1.540890
