19
Iteration:  2651charge 0 multiplicity 1
 C        -1.485881        -1.953258        -0.856011
 C        -1.367619        -0.365528        -0.917635
 C        -2.261887         0.554037        -1.803242
 C        -0.682008         0.270015        -2.122706
 C         0.413955         1.113951        -1.620815
 C         0.381580         0.946023        -0.081707
 O        -0.887702         0.341892         0.284421
 C         1.602206         0.161647         0.469622
 O         2.727092         0.409245         0.299152
 H        -2.531127        -2.196512        -0.560591
 H        -1.392643        -2.345036        -1.803827
 H        -0.867193        -2.554521        -0.281842
 H        -2.974296         0.200440        -2.600457
 H        -2.507575         1.563511        -1.411347
 H        -0.673606        -0.204751        -3.120028
 H         1.422884         0.771853        -1.989601
 H         0.156736         2.245910        -1.702782
 H         0.492017         1.908840         0.342744
 H         1.247862        -0.638204         1.178808
