19
Iteration:  2817charge 0 multiplicity 1
 C        -1.612992        -1.836598        -0.683223
 C        -1.237349        -0.465110        -1.042935
 C        -2.101233         0.342630        -1.937673
 C        -0.673957         0.415932        -2.147232
 C         0.299333         1.383418        -1.494884
 C         0.388779         0.970415        -0.078626
 O        -0.804627         0.223309         0.222064
 C         1.532608         0.241097         0.575784
 O         2.666337         0.219895         0.158390
 H        -2.579988        -1.805433        -0.230974
 H        -1.514212        -2.604423        -1.547373
 H        -0.982111        -2.107591         0.078556
 H        -2.759235        -0.091706        -2.686127
 H        -2.528148         1.226223        -1.445934
 H        -0.382167        -0.168383        -2.996952
 H         1.378771         1.202702        -1.734236
 H        -0.122658         2.472755        -1.578082
 H         0.387704         1.904913         0.432100
 H         1.182235        -0.261088         1.510191
