19
Iteration:  1761charge 0 multiplicity 1
 C        -1.421744        -1.920660        -0.791528
 C        -1.173538        -0.401171        -0.962417
 C        -2.033096         0.412470        -1.758508
 C        -0.601676         0.326352        -2.100234
 C         0.227818         1.424363        -1.567378
 C         0.307840         1.146732        -0.069928
 O        -0.838456         0.304547         0.283924
 C         1.430839         0.208016         0.475362
 O         2.559775         0.045224         0.118865
 H        -2.551230        -2.164215        -0.354906
 H        -1.301732        -2.460905        -1.783984
 H        -0.758927        -2.432295        -0.122371
 H        -2.641707        -0.147985        -2.482107
 H        -2.364838         1.368804        -1.376071
 H        -0.298622        -0.270032        -2.993087
 H         1.257187         1.415963        -1.897277
 H        -0.138421         2.370898        -1.979709
 H         0.319079         2.121389         0.633842
 H         1.104692        -0.270280         1.395295
