19
Iteration:   936charge 0 multiplicity 1
 C        -1.566570        -1.912494        -0.893094
 C        -1.276023        -0.390405        -0.877262
 C        -1.939400         0.549442        -1.760432
 C        -0.529201         0.209131        -2.067252
 C         0.459669         1.167352        -1.578461
 C         0.215540         1.115872        -0.031123
 O        -0.927066         0.196267         0.348542
 C         1.456941         0.308101         0.471097
 O         2.537750         0.288594         0.019684
 H        -2.318639        -2.157005        -0.176793
 H        -1.704879        -2.449712        -1.859475
 H        -0.667313        -2.460659        -0.405349
 H        -2.820850         0.409844        -2.433079
 H        -1.891542         1.541097        -1.191447
 H        -0.250461        -0.307067        -2.956334
 H         1.586683         0.851252        -1.711186
 H         0.157089         2.110706        -2.005849
 H         0.088078         2.019480         0.516921
 H         1.196392        -0.394198         1.356785
