19
Iteration:  1780charge 0 multiplicity 1
 C        -1.440907        -1.881552        -0.732680
 C        -1.206835        -0.412814        -0.904235
 C        -2.152168         0.387432        -1.918387
 C        -0.604200         0.297710        -2.110858
 C         0.290638         1.481217        -1.558306
 C         0.302068         1.109379        -0.038822
 O        -0.819839         0.257904         0.241284
 C         1.475216         0.239247         0.494791
 O         2.611045         0.036051         0.124466
 H        -2.257983        -1.978705        -0.080213
 H        -1.475564        -2.411976        -1.648079
 H        -0.695492        -2.423908        -0.183365
 H        -2.901922        -0.108011        -2.573408
 H        -2.556628         1.265467        -1.371162
 H        -0.120705        -0.057951        -3.052869
 H         1.331223         1.618918        -2.085455
 H        -0.097391         2.566993        -1.505629
 H         0.177232         2.019594         0.692734
 H         0.978836        -0.365228         1.361896
