19
Iteration:  1082
 C        -1.443785        -1.879985        -0.721010
 C        -1.396938        -0.374111        -0.968897
 C        -2.119402         0.634915        -1.867796
 C        -0.721878         0.249245        -2.150230
 C         0.347415         1.179087        -1.570018
 C         0.370248         0.794315        -0.076554
 O        -0.943709         0.323914         0.224081
 C         1.567396         0.059546         0.529865
 O         2.730861         0.476225         0.192470
 H        -2.377114        -2.218579        -0.134984
 H        -1.436691        -2.460209        -1.686309
 H        -0.518040        -2.145037        -0.249527
 H        -2.887877         0.299813        -2.506949
 H        -2.427866         1.532398        -1.376612
 H        -0.316221        -0.362976        -2.947040
 H         1.319138         0.941013        -1.897709
 H         0.221412         2.178525        -1.697027
 H         0.254388         1.678481         0.555787
 H         1.338820        -0.708592         1.357448
