19
Iteration:  3244charge 0 multiplicity 1
 C        -1.563222        -1.864155        -0.733445
 C        -1.373975        -0.440024        -1.023218
 C        -2.077785         0.489721        -1.979445
 C        -0.520874         0.261952        -2.084583
 C         0.448968         1.238865        -1.494976
 C         0.336948         0.938153         0.028421
 O        -0.950794         0.259032         0.218336
 C         1.516841         0.262229         0.603684
 O         2.630603         0.347643         0.128226
 H        -0.683843        -2.430243        -0.934730
 H        -1.781647        -2.118502         0.261671
 H        -2.260290        -2.324613        -1.493361
 H        -2.571379        -0.070528        -2.753022
 H        -2.598529         1.367682        -1.626858
 H        -0.295069        -0.188935        -3.007663
 H         1.467582         1.198141        -1.883462
 H         0.072686         2.244841        -1.618805
 H         0.322544         2.007726         0.579957
 H         1.249405        -0.545770         1.323221
