19
Iteration:  4917
 C        -1.818733        -1.963129        -0.825933
 C        -1.220767        -0.480642        -1.010119
 C        -1.843809         0.353768        -2.107986
 C        -0.315565        -0.018451        -2.221152
 C         0.609371         1.088907        -1.668324
 C         0.240486         1.122267        -0.157420
 O        -0.985049         0.382120         0.108511
 C         1.348992         0.413962         0.829952
 O         2.538321         0.520456         0.652380
 H        -1.627154        -2.161017         0.209007
 H        -2.995990        -1.830849        -1.171968
 H        -1.319545        -2.704762        -1.429433
 H        -2.564363        -0.082094        -2.773230
 H        -2.123821         1.366890        -1.834051
 H        -0.163207        -0.521295        -3.143553
 H         1.635946         0.641564        -1.717001
 H         0.383558         1.956724        -2.211016
 H         0.170009         2.177895         0.232229
 H         0.757260         0.009447         1.798135
