19
Iteration:  3823
 C        -2.242525        -1.683676        -0.841710
 C        -1.433919        -0.457224        -1.098077
 C        -1.971599         0.789117        -1.794220
 C        -0.634788         0.091127        -2.313058
 C         0.750481         0.466800        -1.768139
 C         0.529850         0.650559        -0.314102
 O        -0.528706        -0.219585         0.011049
 C         1.708227         0.424289         0.580385
 O         2.309492         1.366698         1.106359
 H        -1.987188        -1.943807         0.196307
 H        -3.359477        -1.719171        -0.900661
 H        -1.880910        -2.640110        -1.452415
 H        -2.824868         0.676076        -2.445453
 H        -1.816614         1.765124        -1.315887
 H        -0.723191        -0.211988        -3.410859
 H         1.262526        -0.528778        -2.038623
 H         1.218718         1.331780        -2.323950
 H         0.189557         1.724933        -0.160016
 H         1.969002        -0.674688         0.774271
