19
Iteration:  1856
 C        -1.457987        -1.893240        -0.767286
 C        -1.225895        -0.417418        -0.915079
 C        -2.013364         0.500234        -1.922693
 C        -0.533623         0.172564        -2.083676
 C         0.407792         1.304526        -1.498769
 C         0.255963         1.083952         0.076293
 O        -0.905190         0.330076         0.344733
 C         1.399707         0.142195         0.435843
 O         2.496134         0.278895        -0.023087
 H        -2.054875        -2.196770         0.045178
 H        -2.037071        -2.128945        -1.678835
 H        -0.472176        -2.563929        -0.703265
 H        -2.689534        -0.040242        -2.664902
 H        -2.375357         1.391613        -1.391808
 H        -0.013957        -0.429259        -2.865106
 H         1.548252         1.296865        -1.734214
 H         0.116469         2.390148        -1.774636
 H         0.384934         1.904874         0.682022
 H         1.142545        -0.593368         1.230357
