19
Iteration:  2152
 C        -1.584318        -1.883536        -0.807231
 C        -1.317386        -0.391134        -0.945897
 C        -2.084400         0.424191        -1.910397
 C        -0.571306         0.215437        -2.062849
 C         0.251468         1.360668        -1.540440
 C         0.327238         1.075011         0.018594
 O        -0.801556         0.264220         0.252869
 C         1.516542         0.152446         0.488758
 O         2.692225         0.259704         0.145418
 H        -2.200128        -1.893661         0.052019
 H        -2.065698        -2.298800        -1.697487
 H        -0.564423        -2.429907        -0.620976
 H        -2.787581        -0.129174        -2.516958
 H        -2.472678         1.335784        -1.497569
 H        -0.211363        -0.066447        -3.115868
 H         1.384246         1.285719        -1.749699
 H        -0.160131         2.363139        -1.707421
 H         0.340805         1.991786         0.535007
 H         1.040866        -0.495654         1.249254
