19
Iteration:  2331
 C        -1.604294        -1.878844        -0.828816
 C        -1.408624        -0.406950        -1.002282
 C        -2.105636         0.559031        -1.934717
 C        -0.571101         0.200570        -2.119271
 C         0.394323         1.245032        -1.515551
 C         0.270449         0.970575         0.015200
 O        -0.918673         0.211520         0.340323
 C         1.620943         0.225264         0.565501
 O         2.733539         0.392117         0.070522
 H        -2.338814        -2.234046         0.052215
 H        -2.140614        -2.372812        -1.673845
 H        -0.734504        -2.414934        -0.592143
 H        -2.748202         0.025735        -2.653250
 H        -2.297717         1.549834        -1.514314
 H        -0.236323        -0.480560        -2.908904
 H         1.427425         1.102378        -1.761371
 H        -0.047190         2.194107        -1.859083
 H         0.440544         1.670827         0.743494
 H         1.488786        -0.185411         1.618774
