19
Iteration:  1703
 C        -1.351851        -1.840992        -0.741537
 C        -1.339090        -0.367317        -0.925232
 C        -2.128042         0.460734        -1.949388
 C        -0.578092         0.337952        -2.134973
 C         0.454781         1.238121        -1.460277
 C         0.259746         1.009377         0.086921
 O        -1.024060         0.247062         0.295739
 C         1.579718         0.308344         0.616698
 O         2.539372         0.143261        -0.132727
 H        -2.070148        -2.210234         0.084956
 H        -1.644241        -2.417088        -1.638060
 H        -0.315302        -2.271498        -0.549995
 H        -2.720584        -0.000929        -2.742764
 H        -2.504465         1.447076        -1.597584
 H        -0.089752        -0.308278        -2.865249
 H         1.573133         0.965265        -1.701101
 H         0.188804         2.357269        -1.549939
 H         0.279440         2.105177         0.675852
 H         1.283390        -0.184689         1.549839
