19
Iteration:   917
 C        -1.467910        -1.930987        -0.818698
 C        -1.340187        -0.403107        -0.894422
 C        -2.018676         0.665126        -1.796348
 C        -0.555934         0.131261        -2.060678
 C         0.435742         1.214709        -1.530309
 C         0.251000         1.027296        -0.044399
 O        -0.853258         0.234532         0.265666
 C         1.481120         0.297893         0.558136
 O         2.506713         0.266558         0.023006
 H        -2.491533        -2.283160        -0.419101
 H        -1.558989        -2.193733        -1.971858
 H        -0.536276        -2.409134        -0.407809
 H        -2.799845         0.351735        -2.514407
 H        -2.252902         1.651197        -1.317232
 H        -0.331821        -0.571066        -2.911968
 H         1.429167         1.027794        -1.872615
 H         0.144514         2.177713        -1.940602
 H         0.237616         1.974194         0.450064
 H         1.282302        -0.285475         1.517354
