19
Iteration:  2032
 C        -1.585606        -1.882758        -0.769432
 C        -1.319729        -0.333094        -0.945972
 C        -2.112310         0.398387        -1.956336
 C        -0.672561         0.272585        -2.173210
 C         0.308912         1.409233        -1.518306
 C         0.333140         0.972596        -0.047090
 O        -0.871550         0.227731         0.259218
 C         1.571393         0.246811         0.562724
 O         2.804859         0.211239         0.193133
 H        -2.147315        -1.944911         0.122143
 H        -2.208136        -2.287701        -1.566623
 H        -0.729420        -2.626655        -0.728493
 H        -2.655444        -0.172859        -2.689977
 H        -2.508598         1.363775        -1.661383
 H        -0.319081        -0.289914        -3.043613
 H         1.217810         1.485119        -2.091231
 H        -0.266633         2.259706        -1.482559
 H         0.134884         1.868150         0.706684
 H         1.282960        -0.200580         1.557715
