19
Iteration:  3598
 C        -2.029260        -1.825357        -0.954926
 C        -1.345298        -0.538765        -1.044730
 C        -1.901747         0.717183        -1.830794
 C        -0.545133         0.109212        -2.192174
 C         0.586172         0.937230        -1.712119
 C         0.207647         0.912798        -0.126436
 O        -0.633136        -0.244528         0.195005
 C         1.443639         0.667059         0.753586
 O         2.636125         0.719104         0.496627
 H        -1.830142        -2.483120        -1.794752
 H        -1.558728        -2.143020        -0.033138
 H        -3.053132        -1.745947        -0.806287
 H        -2.696748         0.519172        -2.524649
 H        -1.844746         1.644116        -1.350561
 H        -0.330247        -0.277210        -3.190123
 H         1.529677         0.324402        -1.924852
 H         0.923366         1.955752        -1.983661
 H        -0.259966         2.000274         0.192232
 H         1.093293         0.338564         1.838091
