19
Iteration:  2899
 C        -1.348055        -1.862298        -0.734053
 C        -1.306985        -0.388919        -0.948070
 C        -2.103442         0.429097        -1.932458
 C        -0.565475         0.283001        -2.077523
 C         0.490835         1.236016        -1.461174
 C         0.278449         1.045982         0.102893
 O        -0.977733         0.390292         0.235717
 C         1.429342         0.196682         0.453003
 O         2.538517         0.204072         0.017297
 H        -1.801075        -2.172487         0.251520
 H        -2.005839        -2.202903        -1.467904
 H        -0.414461        -2.435549        -0.960422
 H        -2.781034        -0.100213        -2.617914
 H        -2.513456         1.329699        -1.420870
 H        -0.295367        -0.290108        -2.952448
 H         1.527570         0.972171        -1.705119
 H         0.420278         2.264002        -1.860122
 H         0.299217         1.843423         0.758384
 H         1.090759        -0.502238         1.279836
