19
Iteration:  3329charge 0 multiplicity 1
 C        -1.682631        -1.838573        -0.765566
 C        -1.347464        -0.467482        -1.081298
 C        -2.095110         0.476720        -1.906034
 C        -0.694110         0.296363        -2.254339
 C         0.405030         1.218748        -1.624009
 C         0.302496         0.921204        -0.066672
 O        -0.813437         0.126782         0.193096
 C         1.572094         0.298191         0.723208
 O         2.767030         0.416837         0.381374
 H        -1.523764        -2.248779        -1.781380
 H        -1.005343        -2.191961        -0.109968
 H        -2.718227        -1.911221        -0.366065
 H        -2.631899        -0.068541        -2.647857
 H        -2.562115         1.395888        -1.601691
 H        -0.509042        -0.221976        -3.152577
 H         1.499339         1.073308        -1.826194
 H         0.024359         2.297895        -1.850309
 H         0.358628         1.866890         0.256246
 H         1.297046        -0.070430         1.778396
