19
Iteration:  3641
 C        -2.117758        -1.787265        -0.940243
 C        -1.326087        -0.452590        -1.096744
 C        -1.995041         0.627628        -1.865336
 C        -0.643769         0.205304        -2.245179
 C         0.616861         0.853380        -1.741380
 C         0.318254         0.799876        -0.229951
 O        -0.613555        -0.270589         0.137425
 C         1.535482         0.639468         0.849453
 O         2.699633         0.870015         0.693744
 H        -2.900990        -1.849291        -1.648061
 H        -1.369621        -2.585473        -0.868300
 H        -2.569655        -1.736615        -0.010082
 H        -2.716784         0.188262        -2.531285
 H        -2.132524         1.546433        -1.372977
 H        -0.583643        -0.463144        -3.103267
 H         1.621598         0.283585        -1.928618
 H         0.729450         1.874506        -2.220660
 H        -0.141286         1.713455         0.029324
 H         1.051763         0.294326         1.789153
