19
Iteration:  2241charge 0 multiplicity 1
 C        -1.435984        -1.823824        -0.756048
 C        -1.404931        -0.299861        -0.862489
 C        -2.119225         0.448455        -1.898305
 C        -0.618031         0.304219        -2.128849
 C         0.374997         1.247390        -1.545392
 C         0.372990         0.849221         0.027808
 O        -0.953820         0.342919         0.243060
 C         1.497638         0.005709         0.407681
 O         2.694376         0.431528         0.197250
 H        -2.358549        -2.213944        -0.188710
 H        -1.553450        -2.241497        -1.816688
 H        -0.507492        -2.248450        -0.314868
 H        -2.831854        -0.093129        -2.540001
 H        -2.405645         1.512167        -1.758292
 H        -0.363862        -0.471155        -2.841109
 H         1.374873         1.068578        -1.988537
 H        -0.054994         2.253533        -1.667966
 H         0.424071         1.779495         0.516229
 H         1.419122        -1.016764         0.817126
