19
Iteration:   107charge 0 multiplicity 1
 C        -1.820993        -1.840799        -0.896447
 C        -1.257293        -0.486329        -0.996176
 C        -2.091357         0.555007        -1.598281
 C        -0.693742         0.246239        -2.242913
 C         0.410328         1.155791        -1.686057
 C         0.271552         1.042141        -0.112281
 O        -0.666185         0.056645         0.211815
 C         1.565276         0.428458         0.666688
 O         2.721738         0.342099         0.259595
 H        -2.683557        -2.011696        -0.224067
 H        -2.059561        -2.262516        -1.815371
 H        -1.053461        -2.541024        -0.538929
 H        -2.956294         0.424024        -2.253705
 H        -2.187440         1.472847        -0.940092
 H        -0.640428        -0.226214        -3.207116
 H         1.514845         0.851851        -1.985972
 H         0.270861         2.313561        -2.011548
 H         0.019994         2.018781         0.438272
 H         1.297567        -0.146528         1.571308
