19
Iteration:  2077
 C        -1.561472        -1.919102        -0.791560
 C        -1.278297        -0.425773        -0.952889
 C        -2.058151         0.517875        -1.779798
 C        -0.556552         0.258525        -2.078922
 C         0.425791         1.307056        -1.572625
 C         0.262997         1.035353        -0.036213
 O        -0.875258         0.213462         0.341930
 C         1.487068         0.201701         0.483616
 O         2.586974         0.309886         0.061104
 H        -2.552141        -2.217374        -0.390206
 H        -1.402451        -2.259347        -1.831915
 H        -0.690006        -2.314469        -0.243014
 H        -2.626345         0.100976        -2.599627
 H        -2.270285         1.512520        -1.455018
 H        -0.254074        -0.235218        -3.098167
 H         1.424368         0.872951        -1.704769
 H         0.206613         2.222539        -1.995481
 H         0.131573         2.110103         0.506623
 H         0.990108        -0.389471         1.296262
