19
Iteration:  4265
 C        -1.971481        -1.772572        -0.780702
 C        -1.384881        -0.388145        -0.978723
 C        -1.962746         0.624887        -1.921111
 C        -0.570715         0.032923        -2.220147
 C         0.642406         0.800861        -1.811711
 C         0.373643         0.922826        -0.208645
 O        -0.721331         0.113340         0.167328
 C         1.651092         0.233455         0.328175
 O         2.425825         0.921392         0.982550
 H        -2.142020        -2.455771        -1.758011
 H        -1.242131        -2.455738        -0.233865
 H        -2.785640        -1.795115        -0.118006
 H        -2.746509         0.137319        -2.537269
 H        -2.095903         1.683563        -1.669994
 H        -0.607735        -0.755527        -2.944221
 H         1.618278         0.394557        -2.050026
 H         0.494598         1.778289        -2.156768
 H         0.321748         1.827205         0.243502
 H         1.590802        -0.859929         0.155591
