19
Iteration:   640charge 0 multiplicity 1
 C        -1.490621        -1.924452        -0.764800
 C        -1.318474        -0.430582        -0.946313
 C        -2.082529         0.502393        -1.818719
 C        -0.584927         0.302067        -2.094259
 C         0.369221         1.346954        -1.516263
 C         0.297535         1.006848        -0.081768
 O        -0.868248         0.354584         0.277027
 C         1.464153         0.165797         0.499814
 O         2.619075         0.171202         0.066652
 H        -2.170071        -2.117675         0.030436
 H        -1.811936        -2.493439        -1.554330
 H        -0.486276        -2.272681        -0.484811
 H        -2.627608        -0.027216        -2.560878
 H        -2.463413         1.439333        -1.474267
 H        -0.442554        -0.304056        -2.992134
 H         1.469341         1.242179        -1.884898
 H         0.186607         2.428623        -1.661514
 H         0.288323         1.950022         0.538180
 H         1.192808        -0.401819         1.398612
