19
Iteration:  1237charge 0 multiplicity 1
 C        -1.666943        -1.882711        -0.802982
 C        -1.279501        -0.423650        -0.897899
 C        -2.064793         0.481597        -1.733067
 C        -0.609919         0.232021        -2.105631
 C         0.326480         1.336333        -1.643475
 C         0.397989         0.964848        -0.142353
 O        -0.816728         0.231744         0.245805
 C         1.495947         0.103924         0.429786
 O         2.689895         0.435542         0.308257
 H        -2.694801        -2.136671        -0.391249
 H        -1.616093        -2.181831        -1.793468
 H        -0.978533        -2.560024        -0.338953
 H        -2.815390         0.077337        -2.476340
 H        -2.191488         1.535107        -1.358282
 H        -0.555987        -0.448583        -2.985235
 H         1.240881         1.244777        -2.154522
 H        -0.053870         2.292316        -1.785121
 H         0.353891         2.055976         0.337691
 H         1.161210        -0.814407         1.025596
