19
Iteration:  3466
 C        -1.821010        -1.938508        -0.899961
 C        -1.334235        -0.442119        -0.991592
 C        -2.094946         0.553536        -1.889618
 C        -0.623211         0.136959        -2.240966
 C         0.486758         1.128330        -1.671792
 C         0.317038         1.023492        -0.082548
 O        -0.705280         0.094300         0.204180
 C         1.523884         0.420303         0.674529
 O         2.695953         0.528345         0.499425
 H        -2.092487        -2.110735         0.190373
 H        -2.830001        -2.140263        -1.498174
 H        -1.111232        -2.652238        -1.270049
 H        -2.996651         0.196578        -2.390650
 H        -2.141940         1.621945        -1.576138
 H        -0.166283        -0.441916        -3.022306
 H         1.529492         0.775617        -1.909379
 H         0.342710         2.171518        -2.063436
 H         0.054860         1.898328         0.360636
 H         1.123761        -0.375971         1.344099
