19
Iteration:  1280
 C        -1.598789        -1.885476        -0.765179
 C        -1.373339        -0.390101        -0.960027
 C        -2.180668         0.506183        -1.898144
 C        -0.718926         0.259756        -2.138774
 C         0.403787         1.251842        -1.566640
 C         0.312586         0.977334        -0.097640
 O        -0.820498         0.197462         0.198328
 C         1.653442         0.202419         0.581871
 O         2.743136         0.374742         0.243986
 H        -2.409665        -2.069204        -0.022237
 H        -1.909740        -2.267900        -1.646672
 H        -0.766741        -2.368152        -0.368719
 H        -2.865774        -0.045070        -2.579580
 H        -2.502568         1.434061        -1.349020
 H        -0.402836        -0.167969        -3.113258
 H         1.486792         1.124620        -1.921219
 H         0.145084         2.305642        -1.807913
 H         0.226812         1.859362         0.640471
 H         1.268709        -0.538046         1.413307
