19
Iteration:  3460charge 0 multiplicity 1
 C        -1.839429        -1.895662        -0.895997
 C        -1.321917        -0.449689        -0.988692
 C        -2.078574         0.562560        -1.884071
 C        -0.622907         0.150847        -2.238675
 C         0.415324         1.101432        -1.639272
 C         0.352638         0.966099        -0.100417
 O        -0.726925         0.122037         0.159858
 C         1.510846         0.397956         0.747782
 O         2.717140         0.556278         0.453132
 H        -2.183005        -2.235894         0.113366
 H        -2.623381        -2.164780        -1.518945
 H        -1.012036        -2.665643        -1.086245
 H        -2.827916         0.105336        -2.540997
 H        -2.212396         1.615832        -1.725280
 H        -0.191630        -0.499051        -3.027143
 H         1.405262         0.789759        -1.925571
 H         0.457441         2.161862        -1.867280
 H         0.059843         1.993707         0.493131
 H         1.303667        -0.464610         1.465642
