19
Iteration:  4221charge 0 multiplicity 1
 C        -1.914573        -1.814504        -0.781766
 C        -1.430219        -0.433347        -1.077590
 C        -2.100485         0.638833        -1.974129
 C        -0.662526         0.056763        -2.342048
 C         0.645367         0.805090        -1.773882
 C         0.378136         0.858861        -0.253055
 O        -0.716216         0.093580         0.118648
 C         1.531147         0.388715         0.691764
 O         2.689780         0.866096         0.918836
 H        -2.892335        -2.072950        -1.385513
 H        -1.140339        -2.559438        -1.046920
 H        -1.997234        -1.931275         0.238787
 H        -2.888352         0.271160        -2.650352
 H        -2.223928         1.553924        -1.389367
 H        -0.489912        -0.566437        -3.184551
 H         1.525522         0.182304        -1.965165
 H         0.789135         1.773854        -2.168767
 H         0.253417         1.897959        -0.152385
 H         1.136392        -0.409089         1.440214
