19
Iteration:  4902
 C        -1.800468        -1.810519        -0.761362
 C        -1.262901        -0.465844        -1.122976
 C        -1.879836         0.353488        -2.166029
 C        -0.402954         0.026854        -2.188589
 C         0.639300         1.038554        -1.632719
 C         0.284425         1.032481        -0.085853
 O        -0.908841         0.263018         0.085020
 C         1.326122         0.474905         0.822374
 O         2.485028         0.546275         0.630332
 H        -1.789950        -2.002128         0.329218
 H        -2.825107        -1.848158        -1.144273
 H        -1.083749        -2.618984        -1.140278
 H        -2.441754        -0.212870        -2.959473
 H        -2.184485         1.375996        -1.881335
 H         0.075782        -0.773775        -2.789476
 H         1.669156         0.838497        -1.852493
 H         0.503094         2.104058        -2.016466
 H         0.021037         2.129086         0.232465
 H         0.992301        -0.246172         1.596301
