19
Iteration:  4095charge 0 multiplicity 1
 C        -2.293568        -1.873350        -1.030413
 C        -1.410382        -0.503803        -1.071865
 C        -1.909156         0.677792        -1.878263
 C        -0.591251         0.075847        -2.232851
 C         0.633440         0.819106        -1.653616
 C         0.392016         0.849128        -0.131576
 O        -0.610360        -0.203583         0.142072
 C         1.562511         0.745094         0.881179
 O         2.720102         0.869339         0.582817
 H        -2.207594        -2.624189        -1.813621
 H        -1.869993        -2.499555        -0.136473
 H        -3.457118        -1.606720        -0.794427
 H        -2.757254         0.485939        -2.499435
 H        -1.970923         1.706184        -1.648287
 H        -0.391414        -0.638180        -2.989769
 H         1.524037         0.179323        -1.815146
 H         0.849467         1.835950        -2.148995
 H        -0.168758         1.775055        -0.053980
 H         1.113825         0.743175         1.911461
