19
Iteration:  2317
 C        -1.647206        -1.864611        -0.753370
 C        -1.301525        -0.390885        -0.915667
 C        -2.072490         0.498483        -1.934543
 C        -0.636143         0.255800        -2.123534
 C         0.324223         1.284225        -1.515755
 C         0.360671         0.908392        -0.014767
 O        -0.869286         0.181774         0.237818
 C         1.538909         0.242119         0.576527
 O         2.742345         0.359663         0.114470
 H        -2.426929        -1.986731        -0.123919
 H        -1.810025        -2.272443        -1.799167
 H        -0.745267        -2.385238        -0.395771
 H        -2.835336        -0.013496        -2.577004
 H        -2.491484         1.487767        -1.694552
 H        -0.348889        -0.238719        -3.037040
 H         1.379428         1.209007        -1.960807
 H         0.049654         2.397122        -1.561420
 H         0.084763         1.873762         0.425197
 H         1.386724        -0.453147         1.451305
