19
Iteration:  1340
 C        -1.602611        -1.882233        -0.862074
 C        -1.366663        -0.408476        -0.887216
 C        -2.013418         0.557580        -1.877603
 C        -0.585324         0.215243        -2.054413
 C         0.465738         1.153940        -1.500830
 C         0.321112         1.007046        -0.064406
 O        -0.879113         0.174497         0.354404
 C         1.518655         0.272498         0.473406
 O         2.593531         0.428023         0.103825
 H        -2.164582        -2.098151         0.042962
 H        -2.280799        -2.352994        -1.731940
 H        -0.634415        -2.519708        -0.893775
 H        -2.796136         0.308718        -2.569248
 H        -2.142361         1.574078        -1.603704
 H        -0.376413        -0.440062        -2.891846
 H         1.399217         0.879095        -1.936693
 H         0.266161         2.158364        -1.833281
 H         0.134815         2.027625         0.501120
 H         1.317067        -0.675078         1.058164
