19
Iteration:  4209
 C        -1.881129        -1.810577        -0.838675
 C        -1.463667        -0.368200        -1.077812
 C        -2.100350         0.585794        -2.006515
 C        -0.660292         0.112434        -2.218856
 C         0.612339         0.744437        -1.759207
 C         0.514526         0.825483        -0.261864
 O        -0.770958         0.032902         0.120520
 C         1.546611         0.494566         0.782004
 O         2.675510         0.854998         0.833850
 H        -2.989138        -2.056872        -1.255903
 H        -1.132950        -2.518878        -1.324224
 H        -2.052097        -1.969904         0.201569
 H        -2.946776         0.286912        -2.655758
 H        -2.226382         1.667854        -1.831539
 H        -0.570601        -0.480734        -3.095663
 H         1.430977         0.103051        -2.116148
 H         0.893920         1.707533        -2.130613
 H         0.273857         1.752376         0.158623
 H         1.042884        -0.207280         1.558435
