19
Iteration:  4108
 C        -2.193255        -1.749139        -0.990941
 C        -1.421151        -0.477812        -1.069235
 C        -1.910792         0.684831        -1.953073
 C        -0.542934         0.055683        -2.215648
 C         0.642572         0.719365        -1.588589
 C         0.293529         0.863667        -0.132401
 O        -0.634455        -0.312873         0.200325
 C         1.504749         0.833619         0.813193
 O         2.712709         0.832259         0.525461
 H        -2.149367        -2.193145        -1.979721
 H        -1.693760        -2.340145        -0.098911
 H        -3.336638        -1.658145        -0.722188
 H        -2.653368         0.374672        -2.652537
 H        -1.908913         1.672988        -1.517364
 H        -0.446856        -0.367607        -3.240926
 H         1.621120         0.258941        -1.826516
 H         0.733287         1.817242        -1.936172
 H        -0.176940         1.841597         0.316156
 H         1.305329         0.600942         1.885118
