19
Iteration:  2073
 C        -1.573881        -1.902734        -0.804512
 C        -1.257135        -0.453141        -0.910117
 C        -2.069965         0.501417        -1.786910
 C        -0.552060         0.271658        -2.097236
 C         0.405103         1.284126        -1.593520
 C         0.277778         1.048453        -0.019860
 O        -0.858776         0.204093         0.312110
 C         1.425177         0.233639         0.476527
 O         2.620087         0.290790         0.081625
 H        -2.496831        -2.171565        -0.382447
 H        -1.536779        -2.197068        -1.850953
 H        -0.646299        -2.347508        -0.175933
 H        -2.689750         0.122665        -2.604414
 H        -2.255127         1.554844        -1.496970
 H        -0.370744        -0.256329        -2.980136
 H         1.555342         1.103985        -1.653933
 H         0.079074         2.341689        -1.915301
 H         0.252692         2.057598         0.496508
 H         1.069372        -0.446007         1.282132
