19
Iteration:  4446charge 0 multiplicity 1
 C        -2.013815        -1.851449        -0.793676
 C        -1.374208        -0.429593        -1.069967
 C        -1.907769         0.771359        -1.809192
 C        -0.687468         0.032451        -2.282965
 C         0.591144         0.697100        -1.903098
 C         0.468989         0.809112        -0.301670
 O        -0.674194        -0.037662         0.091552
 C         1.627288         0.349435         0.533672
 O         2.431009         1.066119         1.087156
 H        -3.043219        -1.939651        -0.879333
 H        -1.491932        -2.541077        -1.522453
 H        -1.706326        -1.844024         0.248454
 H        -2.862198         0.645456        -2.313353
 H        -1.801208         1.805160        -1.462078
 H        -0.724757        -0.415306        -3.228951
 H         1.434110         0.058808        -2.163518
 H         0.687614         1.709668        -2.406904
 H         0.271231         1.865840        -0.024445
 H         1.683424        -0.842933         0.631389
