19
Iteration:  3945charge 0 multiplicity 1
 C        -2.189485        -1.649175        -0.781821
 C        -1.357531        -0.474014        -1.086503
 C        -1.857164         0.723128        -1.916159
 C        -0.593345        -0.110063        -2.353197
 C         0.567905         0.715743        -1.842596
 C         0.375337         0.856481        -0.199074
 O        -0.610283        -0.179722         0.094160
 C         1.662297         0.419971         0.527651
 O         2.492750         1.122061         1.046599
 H        -3.231881        -1.392666        -0.652339
 H        -2.014927        -2.549473        -1.519741
 H        -1.863843        -2.064285         0.199831
 H        -2.823228         0.449526        -2.262879
 H        -1.660701         1.720533        -1.612935
 H        -0.553929        -0.680466        -3.237471
 H         1.619783         0.230385        -2.049360
 H         0.523867         1.813121        -2.170277
 H         0.072405         1.744994         0.293469
 H         1.530339        -0.637912         0.788449
