19
Iteration:  2378
 C        -1.680371        -1.860198        -0.901190
 C        -1.287915        -0.405802        -0.938343
 C        -2.061729         0.466895        -1.845157
 C        -0.538792         0.247643        -2.089084
 C         0.482412         1.234207        -1.567903
 C         0.316593         0.980662         0.036199
 O        -0.842633         0.168993         0.328301
 C         1.459913         0.271768         0.558291
 O         2.578150         0.425116         0.050765
 H        -1.855318        -2.056027         0.278013
 H        -2.556925        -2.242062        -1.403304
 H        -0.770800        -2.554819        -0.957073
 H        -2.733642         0.048679        -2.551388
 H        -2.119064         1.432275        -1.404306
 H        -0.344187        -0.413974        -2.949179
 H         1.367100         0.758787        -1.899399
 H         0.395734         2.253429        -1.826328
 H         0.326006         1.963705         0.369197
 H         1.243291        -0.427880         1.432914
