19
Iteration:  3885
 C        -2.132136        -1.740749        -0.940447
 C        -1.394575        -0.383702        -1.072753
 C        -1.952176         0.751185        -1.848295
 C        -0.729607        -0.024406        -2.244432
 C         0.659573         0.411224        -1.815180
 C         0.453039         0.783138        -0.229123
 O        -0.568254        -0.095244         0.031767
 C         1.735666         0.481150         0.513466
 O         2.383308         1.245528         1.170319
 H        -2.511093        -1.873631         0.127343
 H        -2.953964        -1.726901        -1.541140
 H        -1.415388        -2.514698        -1.153668
 H        -2.959713         0.830861        -2.329176
 H        -1.755214         1.730010        -1.305000
 H        -0.841131        -0.719230        -3.111596
 H         1.345225        -0.389418        -1.925596
 H         1.117819         1.185216        -2.389313
 H         0.261163         1.837891        -0.185816
 H         2.001679        -0.593487         0.439292
