19
Iteration:  1095
 C        -1.486218        -1.805388        -0.765283
 C        -1.381861        -0.363319        -0.984278
 C        -2.206034         0.490109        -1.893554
 C        -0.689837         0.290905        -2.183488
 C         0.377932         1.228336        -1.612007
 C         0.392210         0.816190        -0.045423
 O        -0.897777         0.259306         0.287276
 C         1.574719         0.123549         0.499182
 O         2.723210         0.422209         0.264682
 H        -2.390837        -1.975675         0.015347
 H        -1.595181        -2.405128        -1.671394
 H        -0.633852        -2.169917        -0.112177
 H        -3.027950         0.188526        -2.542863
 H        -2.185614         1.491733        -1.484123
 H        -0.545527        -0.411979        -2.998268
 H         1.170089         1.187817        -2.226808
 H        -0.020451         2.224704        -1.587554
 H         0.658079         1.696971         0.452311
 H         1.397419        -0.607849         1.332306
