19
Iteration:   157
 C        -1.527944        -1.812466        -0.905678
 C        -1.325960        -0.374922        -0.997372
 C        -2.104492         0.641449        -1.778310
 C        -0.707989         0.257099        -2.150050
 C         0.417251         1.027809        -1.524013
 C         0.261689         1.028408         0.014661
 O        -0.855316         0.065244         0.247683
 C         1.641927         0.435840         0.673455
 O         2.648803         0.269843         0.059356
 H        -2.308614        -1.922698        -0.089429
 H        -2.153325        -2.336575        -1.751385
 H        -0.583133        -2.384406        -0.668286
 H        -2.991976         0.213610        -2.310349
 H        -2.361033         1.601603        -1.297381
 H        -0.440376        -0.254694        -3.088652
 H         1.303869         0.646839        -1.877885
 H         0.437854         2.022351        -1.859817
 H         0.060142         1.981112         0.497522
 H         1.493183         0.112504         1.726275
