19
Iteration:  2204
 C        -1.506872        -1.912713        -0.691823
 C        -1.343033        -0.358354        -0.942075
 C        -2.123442         0.479741        -1.910378
 C        -0.621707         0.293611        -2.116174
 C         0.378595         1.275348        -1.511454
 C         0.328338         0.952812         0.069722
 O        -0.962582         0.318675         0.180701
 C         1.502822         0.052144         0.407685
 O         2.725686         0.374689         0.173884
 H        -1.859677        -2.042395         0.267871
 H        -2.093987        -2.364143        -1.459052
 H        -0.434123        -2.381666        -0.810360
 H        -2.690136         0.008666        -2.714640
 H        -2.526663         1.439599        -1.616239
 H        -0.119162        -0.362396        -2.868783
 H         1.448868         1.360568        -1.901180
 H         0.215654         2.406574        -1.420236
 H         0.330550         1.889793         0.681860
 H         1.141586        -0.949767         0.690644
