19
Iteration:  4841
 C        -1.878002        -1.841748        -0.891926
 C        -1.305232        -0.508130        -1.029899
 C        -1.862719         0.437334        -2.054595
 C        -0.372533        -0.059542        -2.172689
 C         0.646308         0.968983        -1.585275
 C         0.247449         0.921099        -0.084689
 O        -0.959593         0.359690         0.123420
 C         1.395686         0.441736         0.769417
 O         2.554023         0.699184         0.584921
 H        -2.935061        -1.875488        -0.667018
 H        -1.569636        -2.394441        -1.897005
 H        -1.202105        -2.439989        -0.336645
 H        -2.508804        -0.028479        -2.796397
 H        -2.142446         1.459961        -1.912191
 H        -0.133468        -0.698522        -2.942914
 H         1.637999         0.447515        -1.784477
 H         0.671421         1.921948        -2.080738
 H         0.276531         1.901826         0.243272
 H         0.942306        -0.052566         1.640803
