19
Iteration:   574
 C        -1.446661        -1.896105        -0.745929
 C        -1.431603        -0.402408        -0.948190
 C        -2.149300         0.572061        -1.937309
 C        -0.667516         0.275275        -2.067572
 C         0.365625         1.348971        -1.530371
 C         0.320859         0.962974        -0.054768
 O        -0.826000         0.204253         0.238854
 C         1.580645         0.294577         0.618195
 O         2.624539         0.133687         0.054095
 H        -2.244511        -1.945591        -0.076502
 H        -1.576297        -2.577032        -1.495126
 H        -0.523091        -2.093734        -0.218811
 H        -2.812003         0.291522        -2.789331
 H        -2.362953         1.523499        -1.455653
 H        -0.262281        -0.464010        -2.752058
 H         1.431391         1.280986        -2.030347
 H         0.094827         2.407235        -1.815712
 H         0.259494         1.961568         0.454961
 H         1.354117        -0.179604         1.666593
