19
Iteration:  3251
 C        -1.542759        -1.897826        -0.773482
 C        -1.390485        -0.370999        -0.964487
 C        -2.090314         0.477609        -1.935722
 C        -0.499966         0.224006        -2.118969
 C         0.447842         1.206553        -1.493133
 C         0.306461         0.974990         0.056950
 O        -0.925333         0.258101         0.203610
 C         1.470463         0.215070         0.590423
 O         2.629579         0.373181         0.127404
 H        -0.572464        -2.360908        -1.118980
 H        -1.723515        -2.100990         0.272624
 H        -2.348314        -2.229144        -1.384754
 H        -2.645120         0.056671        -2.794836
 H        -2.506201         1.410346        -1.582418
 H        -0.179173        -0.243470        -3.079367
 H         1.522133         1.125484        -1.812319
 H         0.213658         2.298518        -1.780147
 H         0.291267         1.988489         0.431045
 H         1.263668        -0.512578         1.404964
