19
Iteration:   590
 C        -1.491634        -1.816877        -0.776897
 C        -1.278985        -0.367861        -0.876080
 C        -2.176667         0.476454        -1.876055
 C        -0.610166         0.290790        -2.127120
 C         0.315473         1.298475        -1.589487
 C         0.405950         1.056038        -0.047193
 O        -0.848846         0.231174         0.291013
 C         1.489196         0.269554         0.517997
 O         2.652117         0.106947         0.130307
 H        -2.424065        -2.269433        -0.291572
 H        -1.659793        -2.192805        -1.882435
 H        -0.581292        -2.317023        -0.393619
 H        -2.811865        -0.181590        -2.459979
 H        -2.470187         1.484526        -1.537348
 H        -0.401892        -0.263616        -3.050073
 H         1.267631         1.154529        -2.009773
 H        -0.110839         2.331209        -1.730646
 H         0.285040         1.927260         0.603873
 H         1.224203        -0.081552         1.499450
