19
Iteration:  4692
 C        -1.956847        -1.833066        -0.891446
 C        -1.338712        -0.481815        -1.062527
 C        -1.885096         0.688721        -2.028693
 C        -0.539326         0.088828        -2.268380
 C         0.632401         0.706325        -1.641458
 C         0.355417         0.795649        -0.094285
 O        -0.888591        -0.012940         0.153091
 C         1.511820         0.496331         0.847256
 O         2.577466         0.970343         0.578315
 H        -0.994323        -2.560845        -0.774416
 H        -2.370068        -1.805849         0.078506
 H        -2.738084        -2.093975        -1.689150
 H        -2.631575         0.614681        -2.807190
 H        -1.982684         1.616343        -1.527148
 H        -0.543284        -0.633215        -3.012197
 H         1.578402         0.167401        -1.879863
 H         0.843187         1.757386        -1.951556
 H         0.256679         1.825912         0.040934
 H         1.207294        -0.241780         1.693627
