19
Iteration:  1306charge 0 multiplicity 1
 C        -1.560992        -1.839619        -0.821841
 C        -1.361755        -0.383638        -0.945720
 C        -2.125369         0.497659        -1.888053
 C        -0.699775         0.288372        -2.133564
 C         0.473757         1.112905        -1.496321
 C         0.348164         0.822941        -0.044681
 O        -1.001522         0.284557         0.236831
 C         1.622915         0.195438         0.652248
 O         2.714575         0.478034         0.078469
 H        -2.054260        -1.976578         0.126682
 H        -2.221502        -2.306895        -1.653599
 H        -0.576126        -2.452301        -0.722746
 H        -2.777134         0.063166        -2.645904
 H        -2.298058         1.463990        -1.434365
 H        -0.380102        -0.183087        -3.035224
 H         1.406075         0.864811        -1.855503
 H         0.300570         2.150868        -1.582850
 H         0.333853         1.872752         0.542526
 H         1.494040        -0.535810         1.537069
