19
Iteration:   898
 C        -1.511647        -1.851826        -0.836850
 C        -1.308042        -0.421685        -0.982498
 C        -2.116841         0.464684        -1.893195
 C        -0.656499         0.308412        -2.129674
 C         0.374496         1.228844        -1.539758
 C         0.372717         1.023185         0.043038
 O        -0.878514         0.225818         0.307694
 C         1.550480         0.309649         0.615544
 O         2.598495         0.203048         0.055001
 H        -2.401126        -2.033462        -0.193324
 H        -1.614678        -2.440458        -1.718107
 H        -0.643538        -2.077122        -0.321440
 H        -2.799455        -0.008208        -2.571057
 H        -2.383218         1.451597        -1.632349
 H        -0.388635        -0.313668        -3.021239
 H         1.323896         0.954808        -1.963258
 H         0.432073         2.371222        -1.708073
 H         0.195541         2.054778         0.605831
 H         1.304549        -0.076892         1.588490
