19
Iteration:  1859
 C        -1.467310        -1.892865        -0.777712
 C        -1.213668        -0.394571        -0.919255
 C        -2.028406         0.488428        -1.900357
 C        -0.520809         0.152370        -2.100171
 C         0.400353         1.331265        -1.507286
 C         0.274691         1.084399         0.044044
 O        -0.899077         0.317227         0.350654
 C         1.352155         0.144001         0.438863
 O         2.520227         0.274165        -0.013832
 H        -2.138449        -2.187430         0.063230
 H        -2.025314        -2.229517        -1.635167
 H        -0.589774        -2.412957        -0.672019
 H        -2.566968        -0.044050        -2.670667
 H        -2.353833         1.348598        -1.353225
 H        -0.016079        -0.398597        -2.833742
 H         1.479884         1.303527        -1.685059
 H         0.094047         2.397291        -1.749860
 H         0.330153         1.927982         0.754774
 H         1.280147        -0.635695         1.239817
