19
Iteration:  1818
 C        -1.357788        -1.847928        -0.720771
 C        -1.344553        -0.362071        -0.987522
 C        -2.110789         0.435592        -2.014714
 C        -0.544359         0.288072        -2.058436
 C         0.403854         1.330172        -1.445876
 C         0.270707         0.933501         0.053934
 O        -1.004818         0.348736         0.285824
 C         1.529132         0.181347         0.521747
 O         2.614306         0.189723        -0.024579
 H        -2.005009        -2.132123         0.233686
 H        -2.014168        -2.285261        -1.539628
 H        -0.328337        -2.299868        -0.782922
 H        -2.835771        -0.072432        -2.612294
 H        -2.458529         1.356511        -1.541242
 H        -0.335009        -0.330892        -2.900732
 H         1.381944         1.212987        -1.748488
 H        -0.059019         2.214542        -1.732813
 H         0.250212         1.900375         0.815844
 H         1.496387        -0.198539         1.629394
