19
Iteration:  1949
 C        -1.503016        -1.929916        -0.804363
 C        -1.275003        -0.385888        -0.890644
 C        -2.081385         0.507458        -1.894585
 C        -0.504103         0.248189        -2.082072
 C         0.389806         1.255766        -1.518897
 C         0.311185         1.029114         0.016295
 O        -0.938246         0.317187         0.307948
 C         1.515035         0.179626         0.486264
 O         2.593753         0.299510         0.063817
 H        -2.461001        -2.350079        -0.232366
 H        -1.584861        -2.365072        -1.845704
 H        -0.717376        -2.245547        -0.244388
 H        -2.845359        -0.012607        -2.481620
 H        -2.426463         1.437022        -1.405676
 H        -0.239330        -0.434279        -2.980210
 H         1.285297         1.115077        -2.090833
 H         0.171773         2.333680        -1.829765
 H         0.094517         1.976068         0.554526
 H         1.009751        -0.683366         1.055799
