19
Iteration:  3679
 C        -1.982581        -1.807767        -1.102466
 C        -1.434974        -0.465382        -0.999170
 C        -1.914669         0.774557        -1.723121
 C        -0.631895         0.088595        -2.208623
 C         0.655119         0.607282        -1.729649
 C         0.393566         0.804653        -0.198154
 O        -0.671160        -0.096453         0.118610
 C         1.519769         0.460005         0.743272
 O         2.529376         1.080129         0.671522
 H        -3.080789        -1.855382        -1.356331
 H        -1.602014        -2.543084        -1.735089
 H        -1.860154        -2.178342        -0.020392
 H        -2.854208         0.792177        -2.329124
 H        -1.955104         1.733096        -1.162643
 H        -0.618494        -0.701495        -2.928442
 H         1.413681        -0.112349        -1.753025
 H         0.988164         1.505755        -2.178236
 H         0.218985         1.933771         0.107253
 H         1.376593        -0.356708         1.529341
