19
Iteration:  1127
 C        -1.698423        -1.924744        -0.788710
 C        -1.283878        -0.409359        -0.920229
 C        -2.138358         0.363280        -1.863137
 C        -0.664075         0.300219        -2.101764
 C         0.324490         1.340975        -1.602446
 C         0.358370         1.088839        -0.045688
 O        -0.779206         0.230740         0.236477
 C         1.592570         0.237885         0.383787
 O         2.761925         0.301143         0.345098
 H        -2.497082        -1.943046         0.082180
 H        -2.210831        -2.266982        -1.682570
 H        -0.862469        -2.635385        -0.647652
 H        -2.898755         0.017585        -2.561499
 H        -2.380042         1.347918        -1.507681
 H        -0.357451        -0.267885        -2.978110
 H         1.243400         1.113444        -2.032468
 H         0.050187         2.276625        -1.874613
 H         0.320119         2.087414         0.536905
 H         0.997451        -0.717673         0.816121
