19
Iteration:  3249
 C        -1.551570        -1.881116        -0.763069
 C        -1.395734        -0.395692        -0.982853
 C        -2.087876         0.480472        -1.947767
 C        -0.497663         0.236905        -2.104518
 C         0.448092         1.213870        -1.495950
 C         0.320736         0.964736         0.059476
 O        -0.933886         0.256706         0.204912
 C         1.473571         0.237612         0.598002
 O         2.636482         0.364977         0.123512
 H        -0.582733        -2.404413        -1.083678
 H        -1.737346        -2.133210         0.377693
 H        -2.305523        -2.253566        -1.451376
 H        -2.621544         0.009191        -2.807327
 H        -2.570477         1.416815        -1.585225
 H        -0.204239        -0.217686        -3.098808
 H         1.497009         1.180867        -1.838073
 H         0.182452         2.279285        -1.731870
 H         0.333519         1.927716         0.415713
 H         1.251938        -0.546491         1.379141
