19
Iteration:  4719
 C        -1.920810        -1.854187        -1.035682
 C        -1.410662        -0.412964        -0.972620
 C        -1.963834         0.574839        -2.044063
 C        -0.523244        -0.043337        -2.192519
 C         0.604332         0.754947        -1.597252
 C         0.323414         0.941735        -0.180196
 O        -0.790999         0.116799         0.191638
 C         1.465368         0.509488         0.799803
 O         2.646637         0.852375         0.652534
 H        -1.207707        -2.266828        -1.630644
 H        -1.900554        -2.238344         0.043183
 H        -2.898111        -1.965266        -1.420451
 H        -2.823597         0.291969        -2.690583
 H        -2.066902         1.645334        -1.678481
 H        -0.420680        -0.841122        -3.015759
 H         1.567145         0.242767        -1.673451
 H         0.893104         1.717325        -2.045223
 H         0.164069         2.040949        -0.066623
 H         1.115592        -0.281342         1.548596
