19
Iteration:  3109
 C        -1.295240        -1.833322        -0.695982
 C        -1.280997        -0.383824        -0.971925
 C        -2.092523         0.410146        -1.964765
 C        -0.604563         0.297557        -2.059219
 C         0.237307         1.426730        -1.482014
 C         0.276444         1.055421        -0.003895
 O        -0.918065         0.342582         0.255229
 C         1.491138         0.112992         0.460738
 O         2.602340         0.059867         0.054051
 H        -2.392016        -2.001723        -0.500167
 H        -0.998989        -2.404583        -1.438452
 H        -0.794650        -1.953851         0.223646
 H        -2.795151        -0.035537        -2.689768
 H        -2.347698         1.374217        -1.454809
 H        -0.276482        -0.223381        -3.010517
 H         1.290791         1.285161        -1.766424
 H         0.032478         2.497352        -1.644152
 H         0.355054         1.944861         0.754450
 H         1.198273        -0.471803         1.364120
