19
Iteration:  1174
 C        -1.576206        -1.839795        -0.702341
 C        -1.370238        -0.364200        -0.971916
 C        -2.135898         0.579846        -1.951158
 C        -0.617521         0.181065        -2.128242
 C         0.409466         1.205384        -1.468263
 C         0.361465         0.876935        -0.006968
 O        -0.890245         0.253267         0.295970
 C         1.558821        -0.004360         0.348552
 O         2.670190         0.577464         0.230516
 H        -2.172403        -2.011257         0.262678
 H        -2.193162        -2.260488        -1.555694
 H        -0.561172        -2.404061        -0.779273
 H        -2.844531         0.179455        -2.730905
 H        -2.431438         1.628424        -1.659130
 H        -0.217073        -0.501469        -2.903353
 H         1.343645         1.086742        -1.963488
 H         0.090106         2.261497        -1.576146
 H         0.544434         1.730817         0.577837
 H         1.406172        -1.125135         0.663173
