19
Iteration:   168charge 0 multiplicity 1
 C        -1.595012        -1.906712        -0.932256
 C        -1.314058        -0.413627        -0.985956
 C        -2.206853         0.598077        -1.801957
 C        -0.693550         0.290249        -2.115870
 C         0.422402         1.091412        -1.488386
 C         0.334555         0.948711         0.006715
 O        -0.857587         0.184804         0.251810
 C         1.616542         0.415215         0.698237
 O         2.667258         0.270140         0.034071
 H        -2.099964        -2.110859         0.057573
 H        -2.075409        -2.235371        -1.953138
 H        -0.608467        -2.466371        -0.816333
 H        -2.834870         0.336079        -2.689028
 H        -2.247630         1.645085        -1.424534
 H        -0.487236        -0.403078        -2.944685
 H         1.334457         0.654363        -1.681517
 H         0.403760         2.089625        -1.762232
 H         0.185415         1.915288         0.487018
 H         1.707518         0.495966         1.773320
