19
Iteration:  4219
 C        -1.910722        -1.798687        -0.791522
 C        -1.448624        -0.428541        -1.074057
 C        -2.109653         0.631957        -1.984691
 C        -0.660504         0.056514        -2.331162
 C         0.648199         0.805178        -1.759713
 C         0.396004         0.847831        -0.274429
 O        -0.722219         0.082593         0.127913
 C         1.536034         0.403415         0.706602
 O         2.692642         0.865868         0.909829
 H        -2.875380        -2.099440        -1.393999
 H        -1.131783        -2.625984        -1.117542
 H        -1.977000        -1.947868         0.303149
 H        -2.918104         0.295869        -2.661643
 H        -2.253346         1.569812        -1.422954
 H        -0.450970        -0.552993        -3.199083
 H         1.494415         0.128357        -1.957576
 H         0.795824         1.822497        -2.116609
 H         0.305805         1.865444        -0.134547
 H         1.086422        -0.343284         1.412028
