19
Iteration:  1638
 C        -1.519086        -1.856211        -0.729222
 C        -1.219149        -0.357210        -0.899374
 C        -2.114180         0.373963        -1.934513
 C        -0.541273         0.272601        -2.076212
 C         0.227047         1.411005        -1.460363
 C         0.341367         1.051365        -0.021196
 O        -0.850949         0.285828         0.239241
 C         1.481974         0.185042         0.447334
 O         2.654104         0.156515         0.105754
 H        -2.184392        -2.039376         0.253392
 H        -1.939812        -2.154968        -1.693797
 H        -0.651929        -2.587811        -0.745048
 H        -2.637595        -0.142397        -2.753363
 H        -2.555111         1.315119        -1.606310
 H        -0.180315        -0.172247        -2.976025
 H         1.285017         1.568018        -1.883952
 H        -0.285231         2.406343        -1.696865
 H         0.184833         1.881554         0.674529
 H         1.241232        -0.635457         1.179887
