19
Iteration:  3002
 C        -1.381491        -1.838799        -0.736314
 C        -1.191758        -0.392722        -0.909219
 C        -2.018879         0.446307        -1.886662
 C        -0.509968         0.265744        -2.067202
 C         0.349823         1.325356        -1.507041
 C         0.263243         1.108202         0.089934
 O        -1.009768         0.330546         0.252591
 C         1.470462         0.149903         0.593659
 O         2.476375         0.118569        -0.166104
 H        -2.473394        -2.138931        -0.636128
 H        -0.752596        -2.295216        -1.625338
 H        -0.922060        -2.256127         0.191474
 H        -2.643681         0.149266        -2.701580
 H        -2.439067         1.296823        -1.375684
 H        -0.107031        -0.354048        -2.896359
 H         1.385089         1.155839        -1.700249
 H         0.027858         2.294450        -1.762326
 H         0.156915         1.935618         0.739791
 H         1.517291        -0.259008         1.634878
