19
Iteration:  3072charge 0 multiplicity 1
 C        -1.387001        -1.852203        -0.837643
 C        -1.193855        -0.429009        -0.921313
 C        -2.045875         0.323438        -1.823292
 C        -0.580440         0.314695        -2.016150
 C         0.221687         1.483504        -1.513648
 C         0.375240         1.121803        -0.055131
 O        -0.866073         0.444252         0.270372
 C         1.405945         0.109909         0.474547
 O         2.536681         0.015444         0.065837
 H        -2.425089        -2.099117        -0.962347
 H        -0.685061        -2.379628        -1.586975
 H        -1.175404        -2.432624         0.071658
 H        -2.667154        -0.298818        -2.492317
 H        -2.561910         1.204312        -1.488996
 H        -0.225249        -0.427443        -2.701084
 H         1.179166         1.406991        -2.086898
 H        -0.339261         2.451524        -1.722789
 H         0.581833         2.045233         0.592636
 H         1.042440        -0.206789         1.496421
