19
Iteration:  4786charge 0 multiplicity 1
 C        -1.782571        -1.785683        -0.715021
 C        -1.412519        -0.432306        -1.083823
 C        -1.864922         0.562263        -2.167662
 C        -0.461625         0.025330        -2.322101
 C         0.594183         0.934288        -1.664418
 C         0.255555         0.938713        -0.147807
 O        -0.879902         0.070506         0.150494
 C         1.437846         0.451920         0.855432
 O         2.589692         0.703933         0.667190
 H        -2.527940        -2.201409        -1.304047
 H        -1.027543        -2.654815        -0.889479
 H        -2.218711        -1.829270         0.241117
 H        -2.687764         0.196057        -2.818845
 H        -2.000025         1.609778        -1.914832
 H        -0.258296        -0.718816        -3.061343
 H         1.637261         0.571866        -1.948131
 H         0.558317         1.938809        -2.061554
 H         0.036918         1.951544         0.064196
 H         0.944714        -0.096467         1.756472
