19
Iteration:   545
 C        -1.487440        -1.828084        -0.749184
 C        -1.228777        -0.469488        -0.926341
 C        -2.047629         0.515991        -1.852491
 C        -0.625701         0.321580        -2.169488
 C         0.455221         1.237842        -1.425064
 C         0.252895         0.970098         0.005040
 O        -0.957767         0.246183         0.254180
 C         1.512581         0.297655         0.560749
 O         2.577580         0.209308        -0.056503
 H        -2.269671        -1.809521         0.082616
 H        -2.071773        -2.340027        -1.570925
 H        -0.573705        -2.410308        -0.491455
 H        -2.736359         0.105625        -2.509965
 H        -2.261662         1.374947        -1.298056
 H        -0.302404        -0.243440        -3.051109
 H         1.416262         0.891801        -1.717595
 H         0.314165         2.310029        -1.723140
 H         0.188238         1.964659         0.457410
 H         1.405099        -0.197083         1.521701
