19
Iteration:   943
 C        -1.572028        -1.910169        -0.849234
 C        -1.277251        -0.432897        -0.880997
 C        -1.980671         0.542205        -1.813140
 C        -0.534607         0.251172        -2.123870
 C         0.492524         1.152287        -1.518182
 C         0.225744         1.092551        -0.024509
 O        -0.887761         0.195879         0.346049
 C         1.457889         0.306468         0.544985
 O         2.557823         0.294765         0.004293
 H        -2.489714        -2.057208        -0.239098
 H        -1.894890        -2.257792        -1.794170
 H        -0.716880        -2.438594        -0.522255
 H        -2.811095         0.267051        -2.434429
 H        -2.277290         1.416077        -1.277524
 H        -0.227706        -0.337878        -2.985227
 H         1.479191         1.041839        -1.927036
 H         0.124692         2.209643        -1.980619
 H         0.119342         2.193709         0.438281
 H         1.237874        -0.424124         1.287198
