19
Iteration:  3269
 C        -1.490671        -1.842090        -0.874323
 C        -1.258471        -0.439787        -0.967264
 C        -2.012729         0.553208        -1.902341
 C        -0.607837         0.191660        -2.097299
 C         0.441802         1.154356        -1.570507
 C         0.255093         1.025187        -0.015733
 O        -0.934717         0.277890         0.302535
 C         1.418741         0.227654         0.567182
 O         2.595276         0.397904         0.175294
 H        -0.804122        -2.567761        -1.412045
 H        -1.318925        -2.277367         0.244043
 H        -2.394482        -2.222772        -1.409874
 H        -2.909528         0.071333        -2.337686
 H        -2.153184         1.627203        -1.589459
 H        -0.332059        -0.642329        -2.804546
 H         1.437796         0.779973        -1.805759
 H         0.499805         2.148766        -1.950101
 H         0.290687         1.950196         0.646092
 H         1.160926        -0.627344         1.288475
