19
Iteration:   963
 C        -1.667768        -1.863133        -0.815939
 C        -1.266290        -0.368573        -0.946262
 C        -2.130964         0.416239        -1.916924
 C        -0.607985         0.273062        -2.079696
 C         0.404366         1.284949        -1.495747
 C         0.344606         1.001218         0.025855
 O        -0.795165         0.181140         0.204036
 C         1.522467         0.296670         0.626380
 O         2.619503         0.299197         0.051186
 H        -2.420459        -1.936696         0.078833
 H        -2.109964        -2.429748        -1.688174
 H        -0.788727        -2.412506        -0.523998
 H        -2.744860        -0.069656        -2.640448
 H        -2.417447         1.409181        -1.716195
 H        -0.254006        -0.224530        -3.003426
 H         1.354285         0.961341        -1.772116
 H         0.225399         2.316519        -1.893810
 H         0.318512         1.842612         0.792490
 H         1.472027        -0.142732         1.695738
