19
Iteration:   646
 C        -1.473859        -1.881511        -0.717501
 C        -1.287516        -0.385000        -0.935251
 C        -2.077100         0.505586        -1.903346
 C        -0.618455         0.312274        -2.128956
 C         0.373371         1.322882        -1.515906
 C         0.313274         0.984304        -0.022011
 O        -0.910076         0.295042         0.288129
 C         1.470095         0.143327         0.524458
 O         2.617426         0.189731         0.036109
 H        -2.123817        -1.986400         0.213174
 H        -1.671930        -2.612723        -1.630376
 H        -0.394287        -2.153359        -0.505469
 H        -2.965722         0.109277        -2.517107
 H        -2.347649         1.500412        -1.479389
 H        -0.297799        -0.312737        -2.961003
 H         1.351017         1.285677        -1.882492
 H         0.233219         2.413213        -1.759874
 H         0.236700         1.958242         0.451436
 H         1.264002        -0.498587         1.450553
