19
Iteration:  4459
 C        -1.993856        -1.757098        -0.769182
 C        -1.442441        -0.460239        -1.091717
 C        -1.922145         0.809784        -1.777373
 C        -0.621932        -0.020622        -2.365862
 C         0.644852         0.699214        -1.842841
 C         0.332170         0.816842        -0.311359
 O        -0.637263        -0.116571         0.092636
 C         1.650402         0.371749         0.554731
 O         2.437183         1.084666         1.044293
 H        -3.114279        -1.669716        -0.814297
 H        -1.671735        -2.705475        -1.288154
 H        -1.909418        -2.226298         0.142006
 H        -2.812737         0.851655        -2.413295
 H        -1.624186         1.661435        -1.172071
 H        -0.726456        -0.550958        -3.282098
 H         1.691009         0.276172        -2.112746
 H         0.761175         1.695680        -2.251917
 H         0.039836         1.966825         0.003490
 H         1.809834        -0.806974         0.453524
