19
Iteration:   832charge 0 multiplicity 1
 C        -1.419397        -1.794677        -0.775551
 C        -1.274400        -0.375963        -0.907616
 C        -2.012389         0.492933        -1.815890
 C        -0.595935         0.192826        -2.104126
 C         0.288228         1.332342        -1.566085
 C         0.309712         1.078888        -0.053266
 O        -0.854935         0.241737         0.264161
 C         1.393549         0.216183         0.486091
 O         2.606181         0.129640         0.138285
 H        -1.930720        -2.156146         0.119270
 H        -1.918653        -2.291124        -1.592179
 H        -0.473315        -2.185885        -0.737889
 H        -2.695949         0.090690        -2.533086
 H        -2.172392         1.529877        -1.537985
 H        -0.234070        -0.439256        -2.943140
 H         1.197813         1.484298        -2.080962
 H        -0.224769         2.344464        -1.943027
 H         0.198395         2.035618         0.598841
 H         0.965057        -0.585811         1.240149
