19
Iteration:  3014
 C        -1.311075        -1.897403        -0.652821
 C        -1.310591        -0.405228        -0.988298
 C        -2.026932         0.513981        -1.900631
 C        -0.554831         0.280757        -2.149948
 C         0.469697         1.338534        -1.382988
 C         0.239841         0.987058         0.067106
 O        -1.003002         0.332909         0.299447
 C         1.476937         0.243633         0.538495
 O         2.430573         0.112871        -0.162279
 H        -2.330442        -2.322965        -0.815225
 H        -0.757770        -2.585803        -1.506058
 H        -0.839035        -1.972623         0.371151
 H        -2.685113        -0.022098        -2.521699
 H        -2.211087         1.528618        -1.612031
 H        -0.189012        -0.288848        -3.023366
 H         1.475169         1.261627        -1.765374
 H         0.184561         2.334744        -1.633202
 H         0.279896         1.947068         0.577945
 H         1.422524        -0.266414         1.542861
