19
Iteration:  2162charge 0 multiplicity 1
 C        -1.606748        -1.847980        -0.775790
 C        -1.233704        -0.425667        -0.945096
 C        -2.027096         0.427969        -1.848441
 C        -0.576432         0.283104        -2.139296
 C         0.273372         1.403257        -1.513599
 C         0.338641         1.074734        -0.041682
 O        -0.801296         0.239920         0.265158
 C         1.457931         0.149994         0.462717
 O         2.638957         0.255795         0.181181
 H        -2.091636        -2.130624         0.082165
 H        -2.215282        -2.305972        -1.538821
 H        -0.636460        -2.534488        -0.688474
 H        -2.731438        -0.179811        -2.400350
 H        -2.371592         1.375059        -1.481935
 H        -0.266310        -0.504466        -2.921934
 H         1.269092         1.551871        -2.102275
 H        -0.210336         2.344604        -1.916144
 H         0.227613         1.873481         0.552407
 H         1.121552        -0.717607         1.080126
