19
Iteration:  1935charge 0 multiplicity 1
 C        -1.504894        -1.855936        -0.792361
 C        -1.314072        -0.394805        -0.978385
 C        -2.098050         0.414477        -1.914079
 C        -0.637184         0.237115        -2.096016
 C         0.320090         1.314229        -1.495198
 C         0.320676         1.009767         0.015517
 O        -0.907190         0.319701         0.286219
 C         1.510520         0.164720         0.516267
 O         2.696880         0.268096         0.082818
 H        -2.559407        -2.002062        -0.387345
 H        -1.433743        -2.427458        -1.744605
 H        -0.772625        -2.281999        -0.054595
 H        -2.683874        -0.101050        -2.651050
 H        -2.308482         1.453484        -1.641901
 H        -0.209190        -0.297869        -2.896420
 H         1.414850         1.269157        -1.733801
 H        -0.095168         2.379938        -1.662786
 H         0.484281         1.861624         0.581003
 H         1.364148        -0.447996         1.404895
