19
Iteration:  3489charge 0 multiplicity 1
 C        -1.760560        -1.850835        -0.891659
 C        -1.271026        -0.478221        -0.986855
 C        -1.994142         0.606409        -1.737590
 C        -0.609876         0.158227        -2.159984
 C         0.460351         1.061861        -1.733286
 C         0.315364         1.042335        -0.222652
 O        -0.764503         0.011961         0.157346
 C         1.465963         0.441674         0.647109
 O         2.633207         0.517986         0.535823
 H        -1.568442        -2.223517         0.215104
 H        -2.900482        -2.034128        -1.067973
 H        -1.245017        -2.501782        -1.613713
 H        -2.542005         0.336615        -2.608140
 H        -2.303266         1.503533        -1.234550
 H        -0.431503        -0.287279        -3.112611
 H         1.467588         0.663915        -1.938688
 H         0.376560         2.093791        -2.082110
 H         0.006660         1.906917         0.193194
 H         0.979367        -0.228906         1.377195
