19
Iteration:  2490
 C        -1.574782        -1.901379        -0.872905
 C        -1.368464        -0.374534        -0.963944
 C        -2.077732         0.631238        -1.739827
 C        -0.606365         0.239964        -2.092833
 C         0.460109         1.052271        -1.576149
 C         0.375694         0.968808        -0.072582
 O        -0.895558         0.177872         0.269773
 C         1.475211         0.247435         0.598453
 O         2.606008         0.472254         0.083225
 H        -2.506408        -2.240290        -0.307678
 H        -1.429851        -2.352288        -1.970412
 H        -0.615783        -2.209024        -0.244874
 H        -2.908187         0.284383        -2.351646
 H        -2.165583         1.523686        -1.078101
 H        -0.474808        -0.392303        -2.961047
 H         1.332565         0.516254        -1.954789
 H         0.447825         2.094496        -1.758005
 H         0.423008         1.961055         0.370109
 H         1.324060        -0.462561         1.432870
