19
Iteration:  1568
 C        -1.463767        -1.907678        -0.744465
 C        -1.267303        -0.428382        -0.915065
 C        -2.112887         0.486588        -1.827985
 C        -0.595588         0.252310        -2.111834
 C         0.438206         1.266890        -1.548947
 C         0.281791         1.037713         0.025690
 O        -0.930787         0.331508         0.314597
 C         1.478996         0.080199         0.393950
 O         2.558592         0.353500         0.093308
 H        -2.398333        -2.129364        -0.504777
 H        -1.246325        -2.119274        -1.821061
 H        -0.696131        -2.474452        -0.169876
 H        -2.796027         0.137439        -2.585917
 H        -2.301797         1.536276        -1.533804
 H        -0.239247        -0.427881        -2.945578
 H         1.484037         1.025344        -1.815089
 H         0.275784         2.367958        -1.831161
 H         0.470020         2.017899         0.641083
 H         1.283744        -0.856691         0.976731
