19
Iteration:  4300
 C        -2.036326        -1.799115        -0.792139
 C        -1.409823        -0.403047        -1.021744
 C        -2.031507         0.587665        -2.008061
 C        -0.709090        -0.041824        -2.292311
 C         0.504881         0.821578        -1.813613
 C         0.445816         0.920227        -0.143689
 O        -0.750614         0.120961         0.142061
 C         1.866909         0.330249         0.317674
 O         2.580206         0.887591         1.182677
 H        -1.950090        -2.507362        -1.634924
 H        -1.577087        -2.087356         0.108003
 H        -3.128303        -1.615399        -0.664941
 H        -2.810165         0.094817        -2.595469
 H        -2.265384         1.652783        -1.834187
 H        -0.413933        -0.866784        -3.037130
 H         1.466600         0.552892        -2.210859
 H         0.344355         1.852462        -2.198795
 H         0.287951         1.972697         0.143667
 H         2.211021        -0.675530        -0.001341
