19
Iteration:   726
 C        -1.557593        -1.847245        -0.786804
 C        -1.216601        -0.381564        -0.890470
 C        -2.038123         0.339547        -1.853013
 C        -0.478604         0.202165        -2.092638
 C         0.259863         1.489299        -1.483057
 C         0.384066         1.122676         0.050437
 O        -0.861286         0.302345         0.297769
 C         1.430132         0.184010         0.376966
 O         2.587088         0.132724         0.040334
 H        -2.548583        -1.880911        -0.252175
 H        -1.728909        -2.119878        -1.819712
 H        -0.828378        -2.612300        -0.226585
 H        -2.781675        -0.158940        -2.401854
 H        -2.306376         1.329013        -1.525340
 H         0.070330        -0.439603        -2.826552
 H         1.216289         1.459346        -2.006527
 H        -0.270505         2.319381        -1.602630
 H         0.264882         2.011404         0.613270
 H         0.910788        -0.690881         0.969923
