19
Iteration:    31
 C        -1.903689        -1.855210        -0.966681
 C        -1.340147        -0.471070        -0.972951
 C        -1.986779         0.708635        -1.595360
 C        -0.639632         0.248556        -2.127375
 C         0.579659         0.871918        -1.592203
 C         0.269925         0.952965        -0.100146
 O        -0.693399        -0.078761         0.267049
 C         1.508899         0.439995         0.574944
 O         2.657665         0.664232         0.154551
 H        -2.474627        -1.910530        -0.034230
 H        -2.595122        -1.937297        -1.713999
 H        -1.331696        -2.751609        -1.033600
 H        -2.711108         0.664181        -2.506246
 H        -1.934343         1.599200        -0.920333
 H        -0.686637        -0.160291        -3.134850
 H         1.504006         0.230522        -1.801984
 H         0.563750         1.864516        -1.866352
 H         0.009338         1.942565         0.258658
 H         1.383171        -0.172692         1.555212
