19
Iteration:  2418charge 0 multiplicity 1
 C        -1.667006        -1.909649        -0.771045
 C        -1.347458        -0.470334        -1.014996
 C        -2.115109         0.537029        -1.872616
 C        -0.682992         0.287807        -2.177631
 C         0.299149         1.313187        -1.616042
 C         0.396994         0.988615        -0.151106
 O        -0.784937         0.088568         0.254380
 C         1.607235         0.352097         0.637881
 O         2.737229         0.289528         0.264963
 H        -2.326198        -1.840492         0.150675
 H        -2.109040        -2.412176        -1.620037
 H        -0.755348        -2.293458        -0.461645
 H        -2.970378         0.177161        -2.463037
 H        -2.257085         1.539309        -1.375886
 H        -0.286633        -0.296056        -3.048119
 H         1.330401         1.228363        -2.026437
 H        -0.088931         2.383420        -1.795227
 H         0.141457         1.912435         0.550895
 H         1.207849        -0.156749         1.553381
