19
Iteration:  3408charge 0 multiplicity 1
 C        -1.769211        -1.885823        -0.870581
 C        -1.395672        -0.458535        -0.988053
 C        -1.960074         0.612868        -1.989794
 C        -0.559156         0.150982        -2.093791
 C         0.493945         0.975370        -1.506419
 C         0.271246         0.974627         0.060568
 O        -0.881968         0.153576         0.201734
 C         1.597823         0.266256         0.627843
 O         2.638388         0.669246         0.228601
 H        -2.798161        -2.033321        -0.837425
 H        -1.428774        -2.429104        -1.763873
 H        -1.418734        -2.336783         0.088028
 H        -2.653471         0.245118        -2.802166
 H        -2.305856         1.532626        -1.460781
 H        -0.241428        -0.198692        -3.134700
 H         1.577003         0.640183        -1.741961
 H         0.407642         2.070309        -1.922826
 H         0.119260         1.797699         0.635998
 H         1.496502        -0.588349         1.370403
