19
Iteration:  1547charge 0 multiplicity 1
 C        -1.579571        -1.882296        -0.829749
 C        -1.273027        -0.422115        -0.957047
 C        -2.086074         0.446591        -1.809421
 C        -0.539277         0.228106        -2.040437
 C         0.301109         1.332712        -1.559902
 C         0.325310         1.027441        -0.061137
 O        -0.853476         0.295817         0.285229
 C         1.525709         0.171109         0.443231
 O         2.636502         0.286427         0.176551
 H        -2.410638        -2.047184        -0.225373
 H        -1.600494        -2.335037        -1.860160
 H        -0.677083        -2.299402        -0.229657
 H        -2.740191        -0.149951        -2.417143
 H        -2.526847         1.385789        -1.441764
 H        -0.279686        -0.351380        -2.972936
 H         1.271299         1.339348        -2.087910
 H        -0.025631         2.404160        -1.756886
 H         0.393248         2.005114         0.475208
 H         0.983945        -0.600298         1.094475
