19
Iteration:   120
 C        -1.726809        -1.938168        -0.862032
 C        -1.256479        -0.481805        -0.987843
 C        -2.072099         0.694437        -1.672595
 C        -0.687779         0.246693        -2.066496
 C         0.422467         1.149676        -1.653613
 C         0.401216         1.055792        -0.106610
 O        -0.655878         0.040542         0.156413
 C         1.486188         0.384378         0.633204
 O         2.585643         0.358153         0.208682
 H        -2.556695        -1.842622        -0.253898
 H        -2.026718        -2.195592        -1.796624
 H        -1.054836        -2.616939        -0.440069
 H        -2.915638         0.282229        -2.143920
 H        -2.227272         1.508641        -0.971047
 H        -0.631302        -0.155283        -3.076244
 H         1.405794         0.789411        -2.084907
 H         0.203868         2.124241        -2.019788
 H         0.051480         2.029098         0.265181
 H         1.090670        -0.154380         1.460418
