19
Iteration:  1760
 C        -1.423723        -1.921552        -0.800143
 C        -1.183902        -0.398881        -0.954167
 C        -2.030372         0.414849        -1.755899
 C        -0.594893         0.318938        -2.101712
 C         0.227957         1.414366        -1.573781
 C         0.300793         1.146650        -0.063975
 O        -0.836879         0.309910         0.282803
 C         1.443290         0.198454         0.477229
 O         2.551925         0.050050         0.115386
 H        -2.519740        -2.162097        -0.348959
 H        -1.268182        -2.467446        -1.758193
 H        -0.764278        -2.430419        -0.132461
 H        -2.637961        -0.150256        -2.480430
 H        -2.390725         1.368773        -1.349594
 H        -0.289183        -0.232345        -3.035260
 H         1.293474         1.430644        -1.915493
 H        -0.138844         2.398716        -1.980300
 H         0.318054         2.145733         0.656955
 H         1.090173        -0.254310         1.430359
