19
Iteration:  3617
 C        -2.075329        -1.836563        -0.880451
 C        -1.320555        -0.447945        -1.125127
 C        -2.004078         0.655963        -1.845853
 C        -0.631253         0.128414        -2.319803
 C         0.581543         0.849105        -1.617606
 C         0.339884         0.861724        -0.111994
 O        -0.542226        -0.216142         0.024948
 C         1.478510         0.675302         0.910936
 O         2.637267         0.775318         0.554342
 H        -2.334504        -2.143276        -1.851428
 H        -1.558031        -2.542756        -0.146427
 H        -3.030752        -1.536271        -0.482865
 H        -2.853065         0.238786        -2.416947
 H        -2.002006         1.665812        -1.434104
 H        -0.453513        -0.380312        -3.241274
 H         1.686186         0.541190        -1.720962
 H         0.536900         1.928145        -2.010787
 H        -0.007991         1.802572         0.243416
 H         1.091827         0.328701         1.864474
