19
Iteration:  4045
 C        -1.969890        -1.829837        -0.850794
 C        -1.417302        -0.404880        -1.010304
 C        -1.962454         0.792661        -1.888651
 C        -0.681572         0.094243        -2.233266
 C         0.674219         0.618253        -1.718991
 C         0.372348         0.884329        -0.162496
 O        -0.628891        -0.102326         0.097682
 C         1.483103         0.428893         0.708624
 O         2.571530         0.997235         0.709569
 H        -1.881102        -2.298536        -1.883470
 H        -1.418345        -2.475235        -0.117372
 H        -2.991307        -1.936428        -0.857163
 H        -2.902258         0.806228        -2.473197
 H        -1.962659         1.840532        -1.474627
 H        -0.767391        -0.452146        -3.213852
 H         1.528638        -0.089239        -1.800217
 H         1.245930         1.390845        -2.277788
 H         0.013249         1.839027        -0.052147
 H         1.083558        -0.448977         1.312225
