19
Iteration:  2403
 C        -1.669621        -1.910998        -0.762424
 C        -1.310891        -0.420564        -0.989111
 C        -2.109097         0.569593        -1.831341
 C        -0.586116         0.203835        -2.178528
 C         0.334852         1.278327        -1.584735
 C         0.256010         1.032074         0.047395
 O        -0.758714         0.133906         0.191001
 C         1.580914         0.295653         0.523526
 O         2.702950         0.317149         0.221690
 H        -2.072906        -2.059063         0.147012
 H        -2.460053        -2.321156        -1.514234
 H        -0.739031        -2.583635        -0.716961
 H        -2.683525         0.067686        -2.637148
 H        -2.330164         1.557811        -1.436797
 H        -0.521578        -0.212571        -3.155195
 H         1.364410         1.044670        -1.970155
 H        -0.009793         2.279149        -1.866431
 H         0.123408         2.049954         0.502149
 H         1.280802        -0.133457         1.537193
