19
Iteration:   684
 C        -1.463564        -1.863279        -0.681368
 C        -1.386839        -0.359067        -0.917534
 C        -2.067108         0.497903        -2.017678
 C        -0.546968         0.323298        -2.047284
 C         0.415210         1.288060        -1.433160
 C         0.329031         0.955577         0.025646
 O        -1.021001         0.309289         0.283153
 C         1.491201         0.106938         0.496242
 O         2.619337         0.255848        -0.081658
 H        -2.053024        -2.227790         0.159045
 H        -1.772587        -2.447150        -1.480021
 H        -0.384691        -2.153960        -0.416431
 H        -2.761758        -0.030366        -2.598280
 H        -2.303350         1.467061        -1.616776
 H        -0.025882        -0.287939        -2.827436
 H         1.490686         1.113747        -1.825941
 H         0.167575         2.340973        -1.550886
 H         0.442009         1.852113         0.696935
 H         1.367332        -0.574558         1.317427
