19
Iteration:  3669
 C        -2.079545        -1.856630        -1.030605
 C        -1.381396        -0.454004        -1.074451
 C        -1.936833         0.743576        -1.773596
 C        -0.679879         0.055068        -2.226524
 C         0.619445         0.705706        -1.677309
 C         0.361295         0.833231        -0.227359
 O        -0.616922        -0.111701         0.116452
 C         1.505161         0.490636         0.773544
 O         2.627382         1.026972         0.697095
 H        -3.110914        -1.864958        -1.466531
 H        -1.302707        -2.396103        -1.665924
 H        -2.075406        -2.333214         0.044035
 H        -2.912320         0.673323        -2.313854
 H        -1.589982         1.633099        -1.212669
 H        -0.643883        -0.470025        -3.165393
 H         1.465435         0.056461        -1.703031
 H         0.907691         1.556239        -2.252679
 H         0.058987         1.970575         0.101444
 H         1.149716        -0.185159         1.655391
