19
Iteration:  1338
 C        -1.606230        -1.891936        -0.874851
 C        -1.365207        -0.404104        -0.889818
 C        -2.027369         0.557236        -1.875883
 C        -0.597448         0.209519        -2.051427
 C         0.475031         1.149413        -1.498415
 C         0.326636         1.010092        -0.056771
 O        -0.889776         0.180289         0.348978
 C         1.527124         0.266781         0.479394
 O         2.596553         0.434811         0.096254
 H        -2.104143        -2.064415         0.041447
 H        -2.212487        -2.387480        -1.654853
 H        -0.668544        -2.478524        -0.902325
 H        -2.806157         0.293973        -2.621108
 H        -2.095188         1.626269        -1.602595
 H        -0.341281        -0.429665        -2.881511
 H         1.384959         0.837961        -1.864401
 H         0.282366         2.123667        -1.809769
 H         0.163026         2.016841         0.529812
 H         1.300324        -0.654819         1.049429
