19
Iteration:  3876
 C        -2.128142        -1.763138        -0.967928
 C        -1.500701        -0.397099        -0.964248
 C        -1.892176         0.851304        -1.816688
 C        -0.702567        -0.051603        -2.261025
 C         0.691533         0.390176        -1.841417
 C         0.478085         0.859094        -0.306936
 O        -0.598582        -0.131874         0.083192
 C         1.736466         0.474823         0.489075
 O         2.383252         1.265622         1.189072
 H        -2.350435        -2.223316         0.010640
 H        -2.989748        -1.794521        -1.595412
 H        -1.453964        -2.603350        -1.476852
 H        -2.794819         0.707243        -2.445912
 H        -1.765962         1.865550        -1.345014
 H        -0.897601        -0.769911        -3.123428
 H         1.441237        -0.518985        -1.817730
 H         0.941333         1.099743        -2.655444
 H         0.172358         1.847697        -0.114435
 H         1.960316        -0.602477         0.461105
