19
Iteration:  3694charge 0 multiplicity 1
 C        -1.994328        -1.811501        -1.023708
 C        -1.380905        -0.408069        -1.037609
 C        -1.977340         0.813470        -1.765042
 C        -0.635418         0.136687        -2.207074
 C         0.758151         0.504734        -1.707209
 C         0.338463         0.696112        -0.163761
 O        -0.748914        -0.122224         0.227664
 C         1.563005         0.452762         0.680687
 O         2.526995         1.166427         0.675907
 H        -3.046451        -1.793015        -1.247705
 H        -1.445480        -2.243689        -2.033700
 H        -1.764502        -2.405856        -0.122471
 H        -2.781450         0.595386        -2.461952
 H        -1.902065         1.794114        -1.333374
 H        -0.788877        -0.165837        -3.253999
 H         1.559761        -0.299955        -2.017687
 H         1.165646         1.504203        -2.070780
 H         0.009573         1.797350        -0.177505
 H         1.490643        -0.599565         1.161024
