19
Iteration:  2484charge 0 multiplicity 1
 C        -1.566189        -1.892927        -0.921335
 C        -1.358754        -0.394914        -0.932942
 C        -2.077106         0.614983        -1.695908
 C        -0.641484         0.213366        -2.051506
 C         0.465402         1.065446        -1.558568
 C         0.332760         0.958523        -0.077311
 O        -0.872568         0.214771         0.256911
 C         1.485677         0.252352         0.546719
 O         2.626504         0.447992         0.116169
 H        -2.448520        -2.245199        -0.433880
 H        -1.425874        -2.443990        -1.777628
 H        -0.806342        -2.241003        -0.324526
 H        -2.797645         0.337641        -2.475511
 H        -2.392962         1.538513        -1.208368
 H        -0.492808        -0.249572        -3.051033
 H         1.408054         0.595267        -1.925823
 H         0.576217         2.119104        -2.028305
 H         0.302768         2.039088         0.266579
 H         1.330421        -0.367281         1.471354
