19
Iteration:  2506
 C        -1.560178        -1.867674        -0.795540
 C        -1.342902        -0.387610        -0.941417
 C        -2.089964         0.654710        -1.850606
 C        -0.701315         0.218759        -2.200377
 C         0.507888         1.105047        -1.572354
 C         0.272509         0.877443         0.064921
 O        -0.850792         0.141313         0.278421
 C         1.515105         0.235012         0.606931
 O         2.653884         0.486669         0.068029
 H        -2.361436        -2.051340        -0.110913
 H        -1.804706        -2.336937        -1.666505
 H        -0.770935        -2.400653        -0.455972
 H        -2.973240         0.496271        -2.497343
 H        -2.183897         1.664044        -1.477912
 H        -0.480866        -0.430780        -3.071407
 H         1.562199         0.903110        -1.844213
 H         0.377704         2.179364        -1.971218
 H         0.087707         1.868825         0.534964
 H         1.487186        -0.481964         1.467378
