19
Iteration:  1154
 C        -1.672662        -1.875266        -0.768857
 C        -1.276222        -0.412519        -0.928494
 C        -1.975745         0.482019        -1.795953
 C        -0.585099         0.195759        -2.092155
 C         0.324784         1.311337        -1.589916
 C         0.324107         0.950724        -0.043079
 O        -0.853453         0.270566         0.226324
 C         1.511013         0.075628         0.343915
 O         2.682666         0.464188         0.286648
 H        -2.210766        -1.958636         0.159091
 H        -2.409746        -2.250528        -1.540945
 H        -0.758484        -2.529985        -0.851559
 H        -2.823804         0.083382        -2.363179
 H        -2.223123         1.472843        -1.336939
 H        -0.400677        -0.375535        -3.000562
 H         1.400016         1.288770        -2.051209
 H        -0.178876         2.364772        -1.832336
 H         0.383287         1.841486         0.528465
 H         1.162985        -0.934461         0.770317
