19
Iteration:  1982charge 0 multiplicity 1
 C        -1.479797        -1.899192        -0.775648
 C        -1.248632        -0.330392        -0.964304
 C        -2.046236         0.521826        -1.844427
 C        -0.551692         0.231541        -2.075286
 C         0.408359         1.232533        -1.540885
 C         0.295109         0.976412        -0.004337
 O        -0.942841         0.274297         0.284021
 C         1.458482         0.183736         0.483745
 O         2.553941         0.334368         0.073336
 H        -2.022235        -2.156069         0.251898
 H        -2.065022        -2.402225        -1.616440
 H        -0.548234        -2.407138        -0.787219
 H        -2.776192         0.039184        -2.524986
 H        -2.256903         1.428707        -1.272165
 H        -0.133715        -0.322684        -2.997564
 H         1.427947         0.907601        -1.813688
 H         0.108910         2.348214        -1.788758
 H         0.363733         1.951595         0.511718
 H         1.095246        -0.633162         1.160587
