19
Iteration:  2022
 C        -1.567643        -1.857310        -0.760999
 C        -1.350520        -0.471257        -0.990300
 C        -2.156758         0.462494        -2.021488
 C        -0.613725         0.342090        -2.118511
 C         0.280846         1.361084        -1.483737
 C         0.377548         0.934215        -0.032600
 O        -0.906684         0.236810         0.247738
 C         1.655957         0.272060         0.535791
 O         2.747992         0.220032         0.196483
 H        -2.009515        -1.992818         0.254098
 H        -2.364515        -2.148752        -1.436141
 H        -0.567184        -2.333139        -0.693206
 H        -2.776244        -0.261818        -2.511640
 H        -2.733100         1.305928        -1.672443
 H        -0.218106        -0.415948        -2.865992
 H         1.242932         1.424799        -1.989072
 H        -0.122732         2.397772        -1.634070
 H         0.344013         1.914812         0.573560
 H         1.244874        -0.239159         1.515260
