19
Iteration:  3334
 C        -1.738969        -1.842498        -0.762769
 C        -1.348643        -0.415073        -1.061266
 C        -2.098084         0.480725        -1.932881
 C        -0.661299         0.250074        -2.223463
 C         0.379720         1.294522        -1.625367
 C         0.336818         0.852339        -0.050055
 O        -0.803275         0.113421         0.154769
 C         1.607554         0.331710         0.694327
 O         2.742627         0.418927         0.404408
 H        -1.752378        -2.379503        -1.721151
 H        -0.759458        -2.336770        -0.260663
 H        -2.714931        -2.035188        -0.267420
 H        -2.744855        -0.151864        -2.595687
 H        -2.525605         1.427778        -1.540711
 H        -0.364141        -0.219659        -3.203676
 H         1.409861         0.928411        -1.851667
 H         0.137852         2.295442        -1.910800
 H         0.237828         2.044295         0.428209
 H         1.330780        -0.028565         1.707219
