19
Iteration:    52
 C        -1.864602        -1.832306        -0.944792
 C        -1.391350        -0.376784        -0.957368
 C        -2.104847         0.740561        -1.765253
 C        -0.707165         0.195492        -2.191268
 C         0.481376         0.988103        -1.596421
 C         0.330566         0.866472        -0.028372
 O        -0.733355        -0.118542         0.239494
 C         1.632723         0.516742         0.702016
 O         2.758465         0.551779         0.161991
 H        -2.367842        -2.095237         0.007076
 H        -2.434606        -2.131530        -1.774669
 H        -0.940134        -2.417272        -0.976656
 H        -3.089096         0.262748        -2.105893
 H        -2.082824         1.776686        -1.344669
 H        -0.500045        -0.428482        -3.060569
 H         1.406654         0.320465        -1.795851
 H         0.607785         2.046893        -1.986884
 H        -0.067983         1.832386         0.413618
 H         1.558092         0.205458         1.766174
