19
Iteration:  3762
 C        -2.309076        -1.658661        -0.982589
 C        -1.340322        -0.501556        -0.995677
 C        -1.851301         0.743625        -1.765718
 C        -0.628020        -0.040921        -2.222682
 C         0.720647         0.657478        -1.842332
 C         0.415345         0.720393        -0.229430
 O        -0.536653        -0.284581         0.146504
 C         1.601671         0.433190         0.617484
 O         2.416550         1.317310         0.905455
 H        -2.816605        -1.663368        -0.010461
 H        -2.998454        -1.524947        -1.930134
 H        -1.871138        -2.593924        -1.141016
 H        -2.689171         0.573600        -2.420405
 H        -1.670365         1.760386        -1.418971
 H        -0.529578        -0.510197        -3.214043
 H         1.632149         0.063326        -2.090443
 H         0.815404         1.650977        -2.318543
 H        -0.052216         1.641219         0.093556
 H         1.807589        -0.666626         0.887076
