19
Iteration:  1646charge 0 multiplicity 1
 C        -1.542317        -1.888770        -0.776528
 C        -1.206556        -0.443583        -0.917070
 C        -2.089872         0.392548        -1.920540
 C        -0.516942         0.230458        -2.045870
 C         0.234987         1.511821        -1.544030
 C         0.276465         1.099253        -0.015055
 O        -0.816337         0.282776         0.282705
 C         1.492837         0.188738         0.445934
 O         2.625774         0.133073         0.107486
 H        -2.059509        -1.985047         0.109587
 H        -2.248835        -2.171108        -1.566097
 H        -0.579176        -2.474420        -0.634346
 H        -2.796136        -0.185211        -2.527735
 H        -2.533351         1.294536        -1.565958
 H        -0.084510        -0.159479        -2.940660
 H         1.350033         1.528609        -1.857288
 H        -0.196425         2.538248        -1.804042
 H         0.414621         1.970296         0.835565
 H         1.006757        -0.615188         1.172997
