19
Iteration:   146charge 0 multiplicity 1
 C        -1.616180        -1.835148        -0.832858
 C        -1.379917        -0.383617        -0.970090
 C        -2.085590         0.653311        -1.754814
 C        -0.654847         0.287949        -2.186616
 C         0.484215         1.121652        -1.622818
 C         0.246447         0.985615        -0.004414
 O        -0.752944         0.017223         0.290562
 C         1.523388         0.448761         0.630057
 O         2.638643         0.280740         0.091270
 H        -2.255842        -2.205188         0.017296
 H        -1.830833        -2.230191        -1.925060
 H        -0.581312        -2.260362        -0.607983
 H        -2.950941         0.223696        -2.331831
 H        -2.266122         1.562445        -1.176094
 H        -0.602787        -0.228325        -3.163649
 H         1.371298         0.619123        -1.741144
 H         0.540902         2.112865        -1.981781
 H        -0.130870         1.931521         0.340191
 H         1.331474        -0.154000         1.548152
