19
Iteration:  2898
 C        -1.351117        -1.855858        -0.738098
 C        -1.311384        -0.399511        -0.942813
 C        -2.104528         0.428065        -1.929435
 C        -0.566898         0.276616        -2.082848
 C         0.492862         1.233006        -1.465594
 C         0.278944         1.049456         0.105620
 O        -0.972980         0.395722         0.237240
 C         1.431282         0.199171         0.452935
 O         2.534775         0.204713         0.019403
 H        -1.797802        -2.180627         0.183976
 H        -1.996408        -2.185314        -1.456204
 H        -0.407556        -2.388496        -0.960331
 H        -2.778675        -0.108701        -2.594153
 H        -2.501570         1.308226        -1.404137
 H        -0.287420        -0.299947        -2.967880
 H         1.551868         0.965631        -1.706925
 H         0.433686         2.299006        -1.850346
 H         0.280339         1.820467         0.774994
 H         1.079710        -0.518135         1.262286
