19
Iteration:   911
 C        -1.477931        -1.920843        -0.833682
 C        -1.344515        -0.357539        -0.889841
 C        -2.051842         0.612355        -1.849645
 C        -0.590414         0.197126        -2.070939
 C         0.440119         1.176298        -1.535115
 C         0.294161         1.018894        -0.040159
 O        -0.841355         0.232854         0.261041
 C         1.447804         0.297728         0.622983
 O         2.550523         0.253517         0.005041
 H        -2.341454        -2.302490        -0.312627
 H        -1.485980        -2.254701        -1.825051
 H        -0.652974        -2.437282        -0.366793
 H        -2.823937         0.296077        -2.528152
 H        -2.235024         1.525333        -1.321645
 H        -0.301541        -0.407862        -2.920283
 H         1.490365         1.062735        -1.862131
 H        -0.113581         2.146210        -1.816928
 H         0.180118         2.060965         0.476608
 H         1.329493        -0.275367         1.562763
