19
Iteration:  2492
 C        -1.573114        -1.906098        -0.850486
 C        -1.369735        -0.380450        -0.967325
 C        -2.081162         0.638710        -1.759639
 C        -0.613126         0.249680        -2.111562
 C         0.468165         1.047903        -1.583416
 C         0.379718         0.967229        -0.058978
 O        -0.897764         0.169564         0.274488
 C         1.497445         0.249387         0.605607
 O         2.589735         0.475508         0.080460
 H        -2.416055        -2.192321        -0.354515
 H        -1.481033        -2.291352        -1.943519
 H        -0.649900        -2.202817        -0.272265
 H        -2.952250         0.285075        -2.322819
 H        -2.106450         1.531939        -1.080107
 H        -0.461928        -0.448730        -2.958398
 H         1.382615         0.530504        -1.948477
 H         0.401943         2.131789        -1.726971
 H         0.407057         1.899156         0.424011
 H         1.303983        -0.470107         1.400180
