19
Iteration:  4113charge 0 multiplicity 1
 C        -2.132743        -1.704376        -0.960486
 C        -1.393233        -0.463499        -1.048181
 C        -1.890657         0.689611        -1.951298
 C        -0.547147         0.018647        -2.224635
 C         0.645058         0.733536        -1.574281
 C         0.240571         0.818958        -0.084281
 O        -0.645586        -0.310126         0.188100
 C         1.515793         0.820148         0.797278
 O         2.680421         0.829253         0.497103
 H        -2.202392        -2.117536        -2.000977
 H        -1.716293        -2.344231        -0.281622
 H        -3.136829        -1.568598        -0.774023
 H        -2.719570         0.450760        -2.682189
 H        -2.048297         1.697325        -1.486494
 H        -0.403056        -0.315384        -3.244796
 H         1.618294         0.265010        -1.752851
 H         0.805478         1.661709        -2.056602
 H        -0.221887         1.832513         0.204023
 H         1.234027         0.654695         1.864573
