19
Iteration:  3339charge 0 multiplicity 1
 C        -1.742175        -1.863275        -0.776895
 C        -1.341342        -0.397850        -1.028956
 C        -2.126122         0.488483        -1.957369
 C        -0.614636         0.233316        -2.210045
 C         0.366149         1.283043        -1.610925
 C         0.362231         0.879979        -0.054260
 O        -0.802912         0.106404         0.143304
 C         1.580702         0.353499         0.688170
 O         2.756800         0.424199         0.402785
 H        -1.944400        -2.472853        -1.709177
 H        -0.919554        -2.333153        -0.370023
 H        -2.622944        -2.049899        -0.157878
 H        -2.835309        -0.070058        -2.532079
 H        -2.469471         1.422918        -1.550831
 H        -0.311708        -0.223917        -3.121114
 H         1.328031         0.962372        -2.006517
 H         0.240117         2.368026        -1.890463
 H         0.179705         1.735930         0.506750
 H         1.287880        -0.069920         1.689339
