19
Iteration:  2725
 C        -1.657584        -1.850118        -0.740035
 C        -1.296466        -0.488270        -0.998601
 C        -2.086430         0.524854        -1.937173
 C        -0.610907         0.233140        -2.149644
 C         0.445205         1.277830        -1.445227
 C         0.278528         0.962330        -0.002553
 O        -0.918588         0.223151         0.239521
 C         1.618078         0.255929         0.523071
 O         2.696439         0.372533         0.115917
 H        -2.096301        -1.955212         0.345041
 H        -2.350102        -2.251695        -1.435270
 H        -0.821410        -2.689909        -0.675964
 H        -2.647698        -0.153349        -2.613434
 H        -2.584950         1.458897        -1.670853
 H        -0.269948        -0.191360        -3.132658
 H         1.468535         1.173996        -1.789230
 H        -0.118500         2.162994        -1.657374
 H         0.323926         1.850026         0.760669
 H         1.372939        -0.435152         1.368730
