19
Iteration:  4252
 C        -1.938594        -1.810163        -0.751235
 C        -1.326404        -0.460208        -1.033117
 C        -1.959485         0.615406        -1.887968
 C        -0.598547         0.011998        -2.255554
 C         0.599826         0.851580        -1.763433
 C         0.402319         0.906333        -0.284927
 O        -0.719140         0.129726         0.154127
 C         1.546102         0.300125         0.449917
 O         2.455489         0.872574         0.932657
 H        -2.568337        -2.100589        -1.713765
 H        -1.069071        -2.504538        -0.453754
 H        -2.695870        -1.713700         0.031524
 H        -2.842382         0.479871        -2.539071
 H        -1.926493         1.566765        -1.336504
 H        -0.440523        -0.560275        -3.146294
 H         1.558886         0.342509        -2.010982
 H         0.760003         1.807966        -2.242338
 H         0.284797         1.930565        -0.053878
 H         1.459659        -0.768243         0.604516
