19
Iteration:  4286
 C        -1.984850        -1.704710        -0.763562
 C        -1.406376        -0.384671        -1.020285
 C        -2.037673         0.546397        -2.075084
 C        -0.624362        -0.012242        -2.223110
 C         0.476699         0.839987        -1.712737
 C         0.423516         0.835472        -0.272746
 O        -0.727977         0.127972         0.210254
 C         1.805840         0.314975         0.326630
 O         2.507408         0.898181         1.088555
 H        -1.753182        -2.385066        -1.745460
 H        -1.431258        -2.409829        -0.050269
 H        -3.020884        -1.749112        -0.542379
 H        -2.989957         0.415618        -2.600251
 H        -1.914685         1.590046        -1.726532
 H        -0.519106        -0.723161        -2.995078
 H         1.368418         0.218768        -1.946377
 H         0.542854         1.810027        -2.100070
 H         0.315250         1.732294         0.178336
 H         2.102363        -0.637827        -0.141078
