19
Iteration:   415
 C        -1.393054        -1.878005        -0.816041
 C        -1.290405        -0.368796        -0.848729
 C        -2.017493         0.545275        -1.856650
 C        -0.623245         0.130076        -2.051106
 C         0.340144         1.297910        -1.538709
 C         0.345851         1.028559        -0.012587
 O        -0.893001         0.378276         0.311082
 C         1.391193         0.098260         0.447382
 O         2.562158         0.248744         0.058439
 H        -2.397603        -2.102119        -0.177879
 H        -1.531949        -2.398184        -1.869744
 H        -0.490189        -2.441666        -0.356581
 H        -2.805800         0.239666        -2.461234
 H        -2.299442         1.489126        -1.597402
 H        -0.314723        -0.378293        -2.951238
 H         1.354216         1.226738        -2.019316
 H         0.037734         2.301631        -1.861322
 H         0.510614         1.977607         0.536237
 H         1.193411        -0.698921         1.156111
