19
Iteration:   430charge 0 multiplicity 1
 C        -1.488331        -1.836099        -0.735642
 C        -1.258437        -0.371517        -0.939232
 C        -2.089269         0.440118        -1.783039
 C        -0.534044         0.309022        -2.122316
 C         0.397684         1.226199        -1.531606
 C         0.281057         1.025260        -0.001763
 O        -0.920757         0.340634         0.281570
 C         1.438504         0.135243         0.443133
 O         2.599597         0.238118         0.026012
 H        -2.384606        -2.108780        -0.292545
 H        -1.424678        -2.218411        -1.752026
 H        -0.599138        -2.173067        -0.295443
 H        -2.801150        -0.185792        -2.461190
 H        -2.327320         1.489410        -1.262368
 H        -0.233317        -0.405272        -2.890985
 H         1.614271         1.046566        -1.753389
 H         0.179087         2.307319        -1.769399
 H         0.173208         1.958517         0.608506
 H         0.975679        -0.621811         1.178454
