19
Iteration:  3934charge 0 multiplicity 1
 C        -2.225356        -1.696727        -0.703355
 C        -1.352343        -0.446106        -1.096274
 C        -1.934486         0.691329        -1.895452
 C        -0.598645        -0.055475        -2.318950
 C         0.654793         0.773563        -1.734500
 C         0.456748         0.802279        -0.310640
 O        -0.571001        -0.183144         0.024866
 C         1.619120         0.354922         0.565648
 O         2.422954         1.159403         1.036748
 H        -3.231892        -1.370543        -0.516969
 H        -2.348907        -2.463024        -1.607563
 H        -1.746530        -2.161731         0.199584
 H        -2.819629         0.695237        -2.502616
 H        -1.715038         1.656881        -1.526921
 H        -0.504451        -0.683466        -3.155983
 H         1.716509         0.281879        -1.952990
 H         0.668393         1.751785        -2.341593
 H         0.149258         1.810139        -0.123254
 H         1.773717        -0.727252         0.676502
