19
Iteration:  2861
 C        -1.394845        -1.897379        -0.810037
 C        -1.286538        -0.388795        -0.870846
 C        -2.096130         0.490941        -1.913619
 C        -0.672261         0.184190        -2.077466
 C         0.339287         1.334140        -1.579320
 C         0.315964         1.020271        -0.088177
 O        -0.892849         0.368728         0.288423
 C         1.479499         0.213656         0.458763
 O         2.624706         0.163385         0.200558
 H        -2.225793        -2.237575        -0.235471
 H        -1.276988        -2.160674        -1.942258
 H        -0.541867        -2.292351        -0.331922
 H        -2.819648         0.157520        -2.659770
 H        -2.490037         1.340706        -1.388067
 H        -0.292834        -0.378825        -2.932779
 H         1.323844         1.071166        -2.036782
 H        -0.089204         2.391955        -1.642299
 H         0.383489         1.879138         0.699650
 H         1.100529        -0.285200         1.405096
