19
Iteration:  3704
 C        -2.034053        -1.785232        -1.020279
 C        -1.439414        -0.460977        -1.024241
 C        -1.953807         0.830611        -1.808547
 C        -0.626254         0.227960        -2.253271
 C         0.727362         0.468369        -1.645507
 C         0.349292         0.664740        -0.184911
 O        -0.760049        -0.152670         0.218142
 C         1.608428         0.426393         0.611947
 O         2.548796         1.238997         0.712566
 H        -3.098705        -1.944309        -1.088629
 H        -1.608585        -2.392423        -1.967741
 H        -1.581457        -2.380978        -0.188432
 H        -2.820957         0.661274        -2.467240
 H        -2.126599         1.804672        -1.372520
 H        -0.597018        -0.284984        -3.225459
 H         1.412021        -0.386762        -1.587648
 H         1.262366         1.390485        -1.969307
 H         0.147391         1.810791         0.006915
 H         1.816586        -0.616334         1.075800
