19
Iteration:  1324charge 0 multiplicity 1
 C        -1.579332        -1.905276        -0.837804
 C        -1.375512        -0.379390        -0.984368
 C        -2.117528         0.600908        -1.868403
 C        -0.586852         0.174505        -2.079104
 C         0.446398         1.106187        -1.531844
 C         0.284431         0.964112         0.127838
 O        -0.930059         0.250763         0.242584
 C         1.565652         0.181601         0.530207
 O         2.683344         0.482941         0.059667
 H        -2.011529        -2.264162         0.123896
 H        -2.181920        -2.172687        -1.589200
 H        -0.624173        -2.285364        -0.905035
 H        -2.822549         0.139163        -2.605863
 H        -2.433028         1.620395        -1.428046
 H        -0.315372        -0.522225        -2.901507
 H         1.519011         0.771935        -1.708125
 H         0.502278         2.145448        -1.935714
 H         0.296914         1.892490         0.642026
 H         1.370347        -0.484539         1.380216
