19
Iteration:  3767
 C        -2.319305        -1.654966        -0.978871
 C        -1.296696        -0.475124        -1.007812
 C        -1.854463         0.753887        -1.764551
 C        -0.618635        -0.087046        -2.266591
 C         0.685247         0.655640        -1.801254
 C         0.434363         0.749307        -0.248811
 O        -0.500052        -0.294327         0.106772
 C         1.606229         0.417275         0.645864
 O         2.394322         1.319869         0.915374
 H        -2.926646        -1.701909        -0.017026
 H        -3.113286        -1.381168        -1.598423
 H        -1.805605        -2.701810        -1.158154
 H        -2.767020         0.719893        -2.425159
 H        -1.800965         1.763793        -1.311884
 H        -0.630763        -0.695856        -3.169205
 H         1.643778         0.107601        -2.106210
 H         0.788142         1.624541        -2.293650
 H        -0.011942         1.702986         0.135413
 H         1.692542        -0.658185         0.867046
