19
Iteration:  1422
 C        -1.623868        -1.858710        -0.835858
 C        -1.307021        -0.398589        -0.957326
 C        -2.152842         0.525955        -1.916466
 C        -0.655802         0.229783        -2.154450
 C         0.375534         1.168493        -1.496167
 C         0.341043         0.958178        -0.011822
 O        -0.826288         0.183606         0.263223
 C         1.541856         0.338973         0.618027
 O         2.755817         0.348161         0.111248
 H        -2.657902        -2.124517        -0.330892
 H        -1.592633        -2.241673        -1.814279
 H        -0.838501        -2.216531        -0.206409
 H        -2.932172         0.103164        -2.616935
 H        -2.458497         1.444192        -1.332534
 H        -0.464420        -0.453857        -2.965567
 H         1.485978         1.042891        -1.877156
 H        -0.029355         2.198419        -1.817475
 H         0.143537         1.847610         0.633644
 H         1.256701        -0.192479         1.571618
