19
Iteration:  1346
 C        -1.614324        -1.885745        -0.830420
 C        -1.352758        -0.406133        -0.894907
 C        -1.975082         0.565898        -1.866936
 C        -0.549898         0.208158        -2.076648
 C         0.419381         1.186658        -1.571649
 C         0.278043         0.999296        -0.025095
 O        -0.831577         0.157122         0.344713
 C         1.431385         0.245551         0.484131
 O         2.652187         0.421983         0.111542
 H        -2.288690        -2.240762         0.001548
 H        -2.204102        -1.957418        -1.677424
 H        -0.751814        -2.462710        -0.809571
 H        -2.808196         0.162275        -2.517539
 H        -2.346977         1.565506        -1.419043
 H        -0.384986        -0.462317        -2.923661
 H         1.467050         1.022464        -2.021046
 H         0.203749         2.257316        -1.886784
 H         0.131855         1.965568         0.358873
 H         1.219478        -0.593553         1.167711
