19
Iteration:  2759
 C        -1.596743        -1.842940        -0.859768
 C        -1.339952        -0.359284        -0.855844
 C        -1.955264         0.543139        -1.944603
 C        -0.534897         0.087862        -2.004752
 C         0.490103         1.201861        -1.494691
 C         0.252909         0.952921         0.029658
 O        -0.961182         0.240894         0.348221
 C         1.506650         0.205072         0.522024
 O         2.576157         0.442200        -0.055531
 H        -2.181946        -2.268073         0.061208
 H        -2.205537        -2.104461        -1.703837
 H        -0.563946        -2.284790        -1.008815
 H        -2.642928        -0.079819        -2.542186
 H        -2.179421         1.620498        -1.815099
 H        -0.416673        -0.662957        -2.800806
 H         1.540066         1.305293        -1.639231
 H         0.162633         2.168465        -1.814806
 H         0.359164         1.899619         0.682884
 H         1.412997        -0.497931         1.382079
