19
Iteration:   880
 C        -1.526255        -1.845393        -0.731708
 C        -1.272871        -0.355397        -0.982533
 C        -2.247252         0.383755        -1.942205
 C        -0.638120         0.405725        -2.150334
 C         0.392554         1.303732        -1.498495
 C         0.241338         1.026206        -0.007226
 O        -0.874214         0.230621         0.196401
 C         1.653065         0.284934         0.593712
 O         2.718169         0.120152         0.127977
 H        -2.384742        -1.962902        -0.091040
 H        -1.866955        -2.237280        -1.692966
 H        -0.739470        -2.609032        -0.305845
 H        -2.767976        -0.350324        -2.574181
 H        -2.908521         1.145306        -1.509516
 H        -0.327103        -0.099043        -3.039445
 H         1.547316         1.215972        -1.690004
 H         0.296078         2.399660        -1.802671
 H         0.048828         1.888124         0.586766
 H         1.377952         0.036067         1.737728
