19
Iteration:   535
 C        -1.546410        -1.883853        -0.799914
 C        -1.236705        -0.371663        -0.989694
 C        -2.084178         0.429826        -1.802973
 C        -0.512618         0.323797        -2.037150
 C         0.461707         1.242387        -1.543385
 C         0.279079         0.998308         0.019632
 O        -0.894384         0.276887         0.281962
 C         1.480675         0.271540         0.550957
 O         2.528508         0.237383        -0.061379
 H        -2.184237        -1.932902         0.162609
 H        -2.158414        -2.271617        -1.713592
 H        -0.737951        -2.613888        -0.513942
 H        -2.757885         0.121782        -2.543835
 H        -2.447439         1.317607        -1.334937
 H        -0.262341        -0.332714        -2.868143
 H         1.435501         0.937108        -1.705642
 H         0.385585         2.309079        -1.768330
 H         0.161987         1.888388         0.645102
 H         1.322286        -0.289104         1.521733
