19
Iteration:  3017charge 0 multiplicity 1
 C        -1.306332        -1.915296        -0.663011
 C        -1.323273        -0.395229        -0.988847
 C        -2.035176         0.521967        -1.920752
 C        -0.536298         0.297993        -2.138331
 C         0.465746         1.325826        -1.377605
 C         0.240364         0.958340         0.059647
 O        -0.988881         0.335201         0.300430
 C         1.446650         0.270121         0.542754
 O         2.449637         0.104617        -0.173558
 H        -2.273164        -2.368622        -0.678647
 H        -0.714828        -2.604316        -1.372977
 H        -0.882938        -1.984207         0.365230
 H        -2.761796        -0.027243        -2.513527
 H        -2.223385         1.553001        -1.636550
 H        -0.268775        -0.270952        -3.017130
 H         1.516524         1.230109        -1.771750
 H         0.184484         2.419036        -1.584464
 H         0.276147         2.001282         0.655978
 H         1.344420        -0.268641         1.535534
