19
Iteration:  3055
 C        -1.347481        -1.914683        -0.765478
 C        -1.222582        -0.327408        -0.902730
 C        -2.117212         0.367690        -1.860019
 C        -0.544356         0.307894        -2.147312
 C         0.320288         1.412125        -1.513536
 C         0.298133         1.082402         0.026927
 O        -0.926741         0.390050         0.287903
 C         1.457717         0.213980         0.520697
 O         2.544131        -0.000273        -0.010462
 H        -2.412661        -2.263531        -0.963995
 H        -0.713918        -2.433442        -1.447688
 H        -1.043701        -2.074516         0.269054
 H        -2.838941        -0.244403        -2.444797
 H        -2.489943         1.372596        -1.559656
 H        -0.134374        -0.211306        -3.070529
 H         1.359482         1.472668        -1.802868
 H        -0.076127         2.416368        -1.551702
 H         0.217687         1.956140         0.671502
 H         1.119971        -0.449573         1.343005
