19
Iteration:  3726charge 0 multiplicity 1
 C        -2.125647        -1.782505        -1.012104
 C        -1.442771        -0.491710        -1.154296
 C        -1.997527         0.832169        -1.836235
 C        -0.655408         0.070314        -2.179895
 C         0.684596         0.485188        -1.597691
 C         0.359824         0.741573        -0.031550
 O        -0.675183        -0.189311         0.066476
 C         1.733956         0.392517         0.626876
 O         2.536643         1.335013         0.778867
 H        -3.150955        -1.697353        -0.752340
 H        -2.227057        -2.232353        -2.049710
 H        -1.508280        -2.392962        -0.340422
 H        -2.881840         0.901699        -2.455219
 H        -1.809479         1.801219        -1.407096
 H        -0.716489        -0.272948        -3.218562
 H         1.280978        -0.355742        -1.551589
 H         1.207974         1.271088        -2.179588
 H         0.246646         1.874394         0.179841
 H         2.097466        -0.696717         0.678218
