19
Iteration:  4879charge 0 multiplicity 1
 C        -1.766104        -1.806587        -0.717190
 C        -1.369710        -0.398638        -1.135244
 C        -1.832909         0.472832        -2.332420
 C        -0.438785        -0.009338        -2.225182
 C         0.569130         0.995451        -1.591194
 C         0.194965         0.986102        -0.084276
 O        -0.892392         0.178073         0.188448
 C         1.381451         0.418366         0.803110
 O         2.557748         0.609323         0.619967
 H        -2.014969        -1.844965         0.427844
 H        -2.616985        -2.186434        -1.205500
 H        -0.812213        -2.458755        -0.674312
 H        -2.462364        -0.182042        -2.971672
 H        -2.005875         1.565951        -2.330600
 H         0.058967        -0.568666        -3.118971
 H         1.614323         0.705115        -1.525370
 H         0.669531         2.032926        -2.063963
 H        -0.066582         2.056893         0.327974
 H         1.130992        -0.125432         1.786089
