19
Iteration:  1898
 C        -1.595225        -1.903136        -0.717552
 C        -1.249642        -0.422996        -0.974474
 C        -2.114748         0.392923        -2.024357
 C        -0.555885         0.314990        -2.151109
 C         0.205128         1.414233        -1.426813
 C         0.367673         1.033214         0.014279
 O        -0.872946         0.289622         0.274387
 C         1.534905         0.183826         0.547954
 O         2.748964         0.195107         0.077208
 H        -2.473783        -1.939481        -0.146446
 H        -1.579604        -2.605307        -1.588243
 H        -0.767755        -2.288338         0.085263
 H        -2.781466         0.005797        -2.859993
 H        -2.545469         1.359046        -1.697167
 H        -0.433766        -0.381975        -3.008073
 H         1.230819         1.498791        -1.892472
 H        -0.253647         2.346036        -1.685420
 H         0.303640         1.933484         0.703615
 H         1.189662        -0.357726         1.434025
