19
Iteration:  3552charge 0 multiplicity 1
 C        -1.806009        -1.888774        -1.066242
 C        -1.386073        -0.450016        -1.001534
 C        -2.082315         0.629118        -1.890433
 C        -0.596844         0.188488        -2.221688
 C         0.613733         0.835240        -1.532153
 C         0.345420         0.932401        -0.040464
 O        -0.841240         0.007927         0.258899
 C         1.520703         0.601405         0.800949
 O         2.669904         0.644472         0.336616
 H        -1.010832        -2.495232        -1.307663
 H        -2.247069        -2.256593        -0.104818
 H        -2.491829        -2.026953        -1.829889
 H        -2.841257         0.332357        -2.626299
 H        -2.244241         1.618762        -1.411256
 H        -0.498915        -0.459456        -3.071696
 H         1.518014         0.123674        -1.661717
 H         1.021706         1.674286        -2.178355
 H        -0.088816         2.018362         0.345781
 H         1.328009         0.348081         1.934670
