19
Iteration:  3886
 C        -2.133420        -1.733098        -0.932567
 C        -1.389695        -0.389905        -1.081886
 C        -1.959631         0.745898        -1.848041
 C        -0.729311        -0.019808        -2.248055
 C         0.654540         0.418942        -1.812729
 C         0.451424         0.776242        -0.235013
 O        -0.565782        -0.091478         0.035464
 C         1.733175         0.477968         0.518851
 O         2.383866         1.244536         1.167676
 H        -2.523257        -1.825308         0.115776
 H        -2.960825        -1.725118        -1.545475
 H        -1.381308        -2.543037        -1.134886
 H        -2.956675         0.812103        -2.326015
 H        -1.743519         1.719815        -1.312801
 H        -0.820473        -0.718584        -3.132671
 H         1.360702        -0.431293        -1.934841
 H         1.147374         1.230012        -2.345185
 H         0.257966         1.809730        -0.176016
 H         2.012654        -0.586663         0.432583
