19
Iteration:  4632
 C        -2.168906        -1.753979        -1.095135
 C        -1.338684        -0.441243        -0.989900
 C        -1.866102         0.719394        -1.828511
 C        -0.644728        -0.053728        -2.253529
 C         0.621578         0.666851        -1.740562
 C         0.412064         0.820556        -0.148884
 O        -0.649781        -0.209272         0.172910
 C         1.541974         0.548616         0.757922
 O         2.587400         1.132872         0.723669
 H        -2.238844        -2.343303        -0.177501
 H        -3.300750        -1.592688        -1.302039
 H        -1.804126        -2.557020        -1.705406
 H        -2.772160         0.450118        -2.408020
 H        -1.690878         1.811238        -1.615824
 H        -0.548663        -0.740841        -3.179406
 H         1.517256         0.068996        -1.889138
 H         0.763937         1.654284        -2.217026
 H         0.139981         1.886053         0.223154
 H         1.262238         0.003641         1.716354
