19
Iteration:  4740
 C        -1.943279        -1.867908        -0.976381
 C        -1.305683        -0.506558        -1.004987
 C        -1.979851         0.537168        -1.997231
 C        -0.489379         0.023482        -2.211674
 C         0.676407         0.838361        -1.712746
 C         0.238394         1.050558        -0.134103
 O        -0.827774         0.133246         0.181970
 C         1.444048         0.517485         0.761157
 O         2.667040         0.759319         0.707823
 H        -1.717049        -2.591735        -1.702081
 H        -1.584026        -2.341454         0.018786
 H        -3.022892        -1.737497        -0.821738
 H        -2.704314         0.094882        -2.721356
 H        -2.311907         1.610727        -1.765630
 H        -0.331409        -0.560094        -3.221157
 H         1.520331         0.154896        -1.737602
 H         0.994113         1.689928        -2.407166
 H         0.097724         2.034098         0.159075
 H         0.954083        -0.246847         1.482025
