19
Iteration:  1755
 C        -1.436161        -1.919058        -0.830008
 C        -1.223442        -0.412605        -0.896068
 C        -2.043985         0.435554        -1.763809
 C        -0.557645         0.277534        -2.122601
 C         0.258405         1.395832        -1.602862
 C         0.273662         1.153116        -0.024589
 O        -0.834110         0.332815         0.274651
 C         1.454990         0.179464         0.510766
 O         2.549259         0.065674         0.083388
 H        -2.325621        -2.128653        -0.403838
 H        -1.177887        -2.477174        -1.721676
 H        -0.699637        -2.388559        -0.099516
 H        -2.681385        -0.109197        -2.444892
 H        -2.498207         1.305928        -1.282506
 H        -0.286919        -0.040642        -3.108740
 H         1.316341         1.430884        -1.970960
 H        -0.126554         2.408945        -1.850782
 H         0.291389         1.998168         0.572699
 H         1.038431        -0.213739         1.518436
