19
Iteration:  3743charge 0 multiplicity 1
 C        -2.240554        -1.755215        -1.026184
 C        -1.414831        -0.432761        -1.047955
 C        -1.860486         0.758577        -1.788889
 C        -0.606977         0.075863        -2.289067
 C         0.688569         0.564871        -1.661862
 C         0.388116         0.684778        -0.188608
 O        -0.686476        -0.265414         0.172789
 C         1.701692         0.458954         0.545094
 O         2.523263         1.341062         0.870086
 H        -3.163035        -1.639018        -0.348041
 H        -2.687816        -1.990082        -1.993326
 H        -1.563458        -2.559615        -0.609339
 H        -2.772536         0.634166        -2.441313
 H        -1.923572         1.723958        -1.245001
 H        -0.611562        -0.539298        -3.177850
 H         1.529405        -0.198860        -1.978920
 H         1.068278         1.528872        -1.988013
 H         0.038248         1.684782         0.018924
 H         1.842841        -0.613808         0.778944
