19
Iteration:   244
 C        -1.579031        -1.846506        -0.657217
 C        -1.306102        -0.453765        -1.005428
 C        -2.096559         0.548905        -1.859275
 C        -0.530716         0.280860        -2.078290
 C         0.365649         1.396148        -1.571094
 C         0.294124         0.951004        -0.016459
 O        -0.816872         0.119284         0.247457
 C         1.470294         0.229658         0.504145
 O         2.624932         0.259186         0.067450
 H        -2.488316        -1.860731        -0.062637
 H        -1.798253        -2.528574        -1.533115
 H        -0.699934        -2.303936        -0.251158
 H        -2.683313         0.434739        -2.849870
 H        -2.271727         1.624263        -1.375687
 H        -0.323065        -0.171846        -3.037586
 H         1.387153         1.234548        -1.912149
 H         0.094853         2.372412        -1.810036
 H         0.168041         1.760854         0.718156
 H         1.278624        -0.415911         1.464145
