19
Iteration:  4875charge 0 multiplicity 1
 C        -1.774911        -1.835009        -0.702798
 C        -1.371852        -0.420004        -1.145799
 C        -1.830273         0.492451        -2.327127
 C        -0.458082        -0.028786        -2.239589
 C         0.590652         1.011645        -1.618933
 C         0.190755         0.982266        -0.042761
 O        -0.915696         0.184021         0.194373
 C         1.366458         0.445372         0.838496
 O         2.584314         0.615354         0.606750
 H        -2.032911        -1.813788         0.392411
 H        -2.552039        -2.126990        -1.478839
 H        -0.820645        -2.296828        -0.626597
 H        -2.385318        -0.084297        -3.020409
 H        -1.982213         1.553303        -2.272707
 H         0.043296        -0.638471        -2.984627
 H         1.683224         0.585682        -1.642240
 H         0.576782         2.006237        -2.045555
 H        -0.007131         1.954888         0.259466
 H         1.221346        -0.213112         1.663471
