19
Iteration:   769charge 0 multiplicity 1
 C        -1.449555        -1.841519        -0.671496
 C        -1.303306        -0.390461        -1.004426
 C        -2.156638         0.417708        -1.968545
 C        -0.619278         0.311481        -2.131943
 C         0.384993         1.357482        -1.421797
 C         0.316338         0.946328         0.089951
 O        -0.995855         0.350849         0.194753
 C         1.611831         0.147447         0.516917
 O         2.643007         0.182118        -0.019140
 H        -2.376015        -1.957361        -0.031683
 H        -1.393566        -2.461075        -1.552933
 H        -0.500360        -2.092246         0.039149
 H        -2.838772         0.075770        -2.688417
 H        -2.381010         1.415953        -1.668347
 H        -0.292561        -0.475028        -2.863129
 H         1.447157         1.448219        -1.707326
 H        -0.105843         2.426207        -1.410288
 H         0.292809         1.636674         0.892745
 H         1.379645        -0.442852         1.451753
