19
Iteration:  4131
 C        -2.088518        -1.727620        -0.999372
 C        -1.286273        -0.453238        -1.073985
 C        -1.854673         0.700593        -1.860577
 C        -0.502565         0.063219        -2.221858
 C         0.650118         0.697359        -1.565897
 C         0.258803         0.837464        -0.107162
 O        -0.675158        -0.211943         0.169165
 C         1.437025         0.723834         0.876726
 O         2.522238         0.829223         0.363562
 H        -2.464861        -2.059400        -1.994940
 H        -1.399001        -2.452405        -0.424854
 H        -2.961913        -1.593163        -0.297919
 H        -2.742345         0.344258        -2.375177
 H        -1.662791         1.754035        -1.623429
 H        -0.389087        -0.768632        -2.959049
 H         1.520253         0.009596        -1.674006
 H         1.018484         1.713577        -1.853938
 H        -0.173371         1.819061         0.300355
 H         1.343902         0.742294         1.995034
