19
Iteration:  1094
 C        -1.477911        -1.806153        -0.761148
 C        -1.385118        -0.372859        -0.985660
 C        -2.197595         0.499465        -1.896695
 C        -0.699450         0.290884        -2.183268
 C         0.376823         1.227775        -1.610855
 C         0.390391         0.804302        -0.046693
 O        -0.902669         0.266536         0.288298
 C         1.584847         0.127021         0.494742
 O         2.713396         0.423983         0.262242
 H        -2.388404        -1.984852        -0.009953
 H        -1.595247        -2.420580        -1.670864
 H        -0.640462        -2.140896        -0.129184
 H        -3.009534         0.209119        -2.523180
 H        -2.159409         1.480780        -1.472153
 H        -0.527105        -0.424491        -2.979881
 H         1.156071         1.177929        -2.239584
 H         0.040146         2.194880        -1.560825
 H         0.649046         1.723609         0.487025
 H         1.402522        -0.620672         1.354207
