19
Iteration:  2426
 C        -1.635574        -1.877631        -0.744306
 C        -1.309659        -0.430119        -0.961565
 C        -2.184618         0.562217        -1.866831
 C        -0.682768         0.285401        -2.205388
 C         0.330513         1.299297        -1.614693
 C         0.416640         0.942107        -0.106837
 O        -0.795971         0.082447         0.204567
 C         1.573328         0.355236         0.612512
 O         2.759270         0.288831         0.282077
 H        -2.409277        -2.005375        -0.139575
 H        -2.028141        -2.172461        -1.786999
 H        -0.785456        -2.477675        -0.299404
 H        -2.948010         0.037785        -2.466955
 H        -2.434019         1.450739        -1.234093
 H        -0.305115        -0.363044        -2.988064
 H         1.291927         1.234436        -2.210047
 H        -0.152972         2.305686        -1.668948
 H         0.067645         1.922164         0.228213
 H         1.211655        -0.032147         1.614710
