19
Iteration:   293
 C        -1.534745        -1.821336        -0.849859
 C        -1.330987        -0.342552        -0.850011
 C        -2.108844         0.446158        -1.975283
 C        -0.600965         0.236962        -1.970691
 C         0.413498         1.268292        -1.463634
 C         0.360263         0.971559        -0.040554
 O        -0.936503         0.340195         0.321062
 C         1.535858         0.134953         0.469355
 O         2.616584         0.298150         0.018687
 H        -2.627644        -2.202139        -0.421072
 H        -1.574314        -2.217990        -1.885176
 H        -0.534995        -2.431545        -0.593841
 H        -2.718143        -0.232134        -2.469947
 H        -2.599125         1.285327        -1.661075
 H        -0.174152        -0.657421        -2.489094
 H         1.414380         1.156841        -1.959595
 H         0.195879         2.382306        -1.646850
 H         0.538049         1.874296         0.604610
 H         1.388318        -0.407391         1.442737
