19
Iteration:  3940
 C        -2.203130        -1.680130        -0.748529
 C        -1.349712        -0.461437        -1.081798
 C        -1.906604         0.725305        -1.908021
 C        -0.586054        -0.092807        -2.352707
 C         0.620259         0.746448        -1.793646
 C         0.428081         0.840571        -0.251478
 O        -0.605088        -0.193145         0.057191
 C         1.653956         0.398721         0.534507
 O         2.457778         1.134576         1.043304
 H        -3.256837        -1.326439        -0.620526
 H        -2.153107        -2.432125        -1.439955
 H        -1.784749        -2.113321         0.181513
 H        -2.895065         0.479578        -2.377720
 H        -1.544645         1.722465        -1.523521
 H        -0.550786        -0.755603        -3.280830
 H         1.534724         0.291330        -1.878504
 H         0.479679         1.710739        -2.195554
 H         0.057122         1.858992         0.150498
 H         1.602916        -0.723114         0.804336
