19
Iteration:   730
 C        -1.546194        -1.852706        -0.769656
 C        -1.196976        -0.374132        -0.854402
 C        -2.050748         0.369145        -1.879767
 C        -0.507080         0.199918        -2.106702
 C         0.263286         1.513395        -1.515047
 C         0.345661         1.103725         0.048117
 O        -0.835970         0.277337         0.314484
 C         1.460477         0.166512         0.377748
 O         2.571602         0.126418         0.054930
 H        -2.506931        -1.919717        -0.298815
 H        -1.727684        -2.271700        -1.763656
 H        -0.906385        -2.491533        -0.232991
 H        -2.730003        -0.167752        -2.609258
 H        -2.252032         1.416676        -1.615905
 H        -0.036574        -0.509930        -2.803619
 H         1.295910         1.578520        -1.989084
 H        -0.394618         2.455073        -1.704010
 H         0.290955         2.042867         0.714851
 H         0.984536        -0.621038         0.979085
