19
Iteration:  4901
 C        -1.805260        -1.810361        -0.758499
 C        -1.267342        -0.456880        -1.125037
 C        -1.878382         0.356017        -2.171300
 C        -0.404265         0.031736        -2.191467
 C         0.635807         1.035232        -1.622388
 C         0.288969         1.032055        -0.078714
 O        -0.909072         0.250474         0.081093
 C         1.321627         0.476988         0.816227
 O         2.487071         0.548657         0.629637
 H        -1.764098        -1.983941         0.372273
 H        -2.772450        -1.827542        -1.152530
 H        -1.060474        -2.595801        -1.118715
 H        -2.426927        -0.210799        -2.957794
 H        -2.194893         1.372969        -1.890896
 H         0.098316        -0.807305        -2.771511
 H         1.669249         0.792987        -1.877696
 H         0.479917         2.104866        -2.004884
 H         0.043477         2.106256         0.233890
 H         0.984791        -0.221988         1.568052
