19
Iteration:  1161
 C        -1.642804        -1.849397        -0.762676
 C        -1.294398        -0.394175        -0.881227
 C        -2.040373         0.498466        -1.838420
 C        -0.577340         0.225581        -2.098746
 C         0.308724         1.254845        -1.570033
 C         0.378422         0.897388        -0.028971
 O        -0.853728         0.270462         0.199375
 C         1.499747         0.063888         0.333586
 O         2.656894         0.498381         0.269745
 H        -2.145614        -2.096321         0.290967
 H        -2.342844        -2.148794        -1.527275
 H        -0.717867        -2.522318        -0.735881
 H        -2.861282         0.193046        -2.549241
 H        -1.994217         1.526024        -1.451837
 H        -0.221309        -0.360238        -2.961050
 H         1.272475         1.240750        -1.840726
 H        -0.045152         2.204218        -1.765199
 H         0.297747         1.790626         0.626704
 H         1.329200        -0.995548         0.756516
