19
Iteration:  2020charge 0 multiplicity 1
 C        -1.578450        -1.852585        -0.749007
 C        -1.348937        -0.473699        -1.001620
 C        -2.164594         0.464080        -2.024506
 C        -0.601315         0.340590        -2.105155
 C         0.263015         1.356552        -1.488753
 C         0.385068         0.929194        -0.032277
 O        -0.908826         0.237882         0.241411
 C         1.635265         0.272648         0.546019
 O         2.752498         0.223241         0.188823
 H        -1.937851        -1.993631         0.200818
 H        -2.328584        -2.198903        -1.424454
 H        -0.503448        -2.339622        -0.730118
 H        -2.813887        -0.233653        -2.525374
 H        -2.759074         1.320827        -1.679967
 H        -0.205196        -0.333105        -2.807440
 H         1.264296         1.402551        -1.921258
 H        -0.021070         2.317010        -1.649747
 H         0.422005         1.983845         0.608288
 H         1.310571        -0.263002         1.494474
