19
Iteration:  4100charge 0 multiplicity 1
 C        -2.298627        -1.838172        -1.014493
 C        -1.429350        -0.491611        -1.090767
 C        -1.902922         0.670211        -1.902862
 C        -0.570024         0.096244        -2.218793
 C         0.633479         0.781210        -1.635735
 C         0.392496         0.872274        -0.138505
 O        -0.617701        -0.252719         0.174681
 C         1.551174         0.780936         0.856993
 O         2.718280         0.854515         0.562237
 H        -2.084073        -2.563594        -1.835805
 H        -1.821721        -2.414964        -0.233271
 H        -3.255675        -1.660466        -0.737194
 H        -2.731574         0.384436        -2.595172
 H        -1.876852         1.771948        -1.639167
 H        -0.420411        -0.631047        -3.066668
 H         1.531113         0.169371        -1.765397
 H         0.721835         1.811043        -1.940932
 H        -0.322322         1.838549         0.059018
 H         1.157408         0.698451         1.893803
