19
Iteration:    83charge 0 multiplicity 1
 C        -1.858258        -1.842017        -0.916045
 C        -1.332047        -0.420282        -0.967992
 C        -2.185006         0.655703        -1.839478
 C        -0.752797         0.262559        -2.100652
 C         0.381447         1.096344        -1.614023
 C         0.409844         0.889510        -0.121134
 O        -0.693140        -0.055110         0.235619
 C         1.682005         0.563007         0.662041
 O         2.802807         0.386382         0.287158
 H        -2.668070        -2.096029        -0.145694
 H        -2.237959        -2.223011        -1.919856
 H        -1.052383        -2.621333        -0.704682
 H        -3.021717         0.128778        -2.409953
 H        -2.601461         1.538815        -1.318261
 H        -0.549958        -0.198909        -3.067367
 H         1.338837         0.674110        -2.119126
 H         0.329812         2.316262        -1.932036
 H         0.167726         1.847683         0.496882
 H         1.418469         0.354693         1.716611
