19
Iteration:  4212charge 0 multiplicity 1
 C        -1.883995        -1.806131        -0.822663
 C        -1.472256        -0.387299        -1.079017
 C        -2.109910         0.593435        -2.004087
 C        -0.656104         0.088320        -2.254435
 C         0.629154         0.771053        -1.747473
 C         0.483772         0.816342        -0.298053
 O        -0.757848         0.044438         0.131825
 C         1.569565         0.477544         0.763094
 O         2.669050         0.853767         0.859421
 H        -2.862160        -2.092871        -1.269772
 H        -1.255854        -2.494551        -1.237145
 H        -2.021555        -1.953734         0.191122
 H        -2.962470         0.352505        -2.641878
 H        -2.273952         1.635242        -1.711509
 H        -0.494510        -0.485562        -3.150484
 H         1.424248         0.077732        -2.048445
 H         0.856958         1.770515        -2.058245
 H         0.308221         1.926494         0.127046
 H         0.992281        -0.249793         1.458103
