19
Iteration:   874charge 0 multiplicity 1
 C        -1.553313        -1.853014        -0.728835
 C        -1.285257        -0.433206        -0.990539
 C        -2.218545         0.343220        -1.933501
 C        -0.641019         0.430380        -2.106619
 C         0.383511         1.329170        -1.513210
 C         0.287405         1.053934        -0.007834
 O        -0.878936         0.254878         0.152113
 C         1.587658         0.293093         0.626127
 O         2.778530         0.090851         0.131296
 H        -2.399327        -1.904360         0.018934
 H        -2.006753        -2.301902        -1.682611
 H        -0.649220        -2.353288        -0.433354
 H        -2.746807        -0.299597        -2.660188
 H        -2.840622         1.166767        -1.495167
 H        -0.452001        -0.095079        -3.060804
 H         1.379410         1.328481        -1.890451
 H         0.197278         2.424410        -1.544139
 H         0.008056         1.992596         0.627736
 H         1.402902         0.025048         1.622059
