19
Iteration:  2755charge 0 multiplicity 1
 C        -1.594583        -1.826838        -0.842436
 C        -1.381065        -0.393642        -0.855508
 C        -1.965517         0.519995        -1.955321
 C        -0.551002         0.127431        -2.026602
 C         0.486745         1.217110        -1.476400
 C         0.238342         0.957451         0.014657
 O        -0.944461         0.241129         0.337826
 C         1.502282         0.192836         0.574296
 O         2.599520         0.451493        -0.068848
 H        -2.126572        -2.234479        -0.005234
 H        -2.306032        -2.104285        -1.652139
 H        -0.570987        -2.351477        -1.009220
 H        -2.635352        -0.036989        -2.583188
 H        -2.105845         1.563596        -1.807229
 H        -0.273557        -0.674899        -2.753387
 H         1.577609         1.210250        -1.731380
 H         0.248781         2.207268        -1.879623
 H         0.419038         1.886520         0.729776
 H         1.464973        -0.588965         1.384876
