19
Iteration:  3498charge 0 multiplicity 1
 C        -1.756282        -1.954937        -0.880550
 C        -1.305639        -0.449665        -1.019245
 C        -2.026327         0.616231        -1.759283
 C        -0.627424         0.194213        -2.222879
 C         0.515047         1.044270        -1.704239
 C         0.315440         0.929847        -0.150308
 O        -0.703757         0.091333         0.147320
 C         1.405190         0.446416         0.727278
 O         2.636383         0.545722         0.490585
 H        -1.402180        -2.284903         0.069724
 H        -2.890109        -1.924219        -0.940500
 H        -1.337557        -2.510598        -1.644190
 H        -2.908662         0.356993        -2.362124
 H        -2.090094         1.649705        -1.325872
 H        -0.400957        -0.278698        -3.163584
 H         1.514071         0.577537        -2.039474
 H         0.378395         2.052064        -2.186259
 H         0.019340         1.910007         0.190910
 H         0.968169        -0.170998         1.504336
