19
Iteration:  3033charge 0 multiplicity 1
 C        -1.304951        -1.910515        -0.644062
 C        -1.274035        -0.386603        -0.941638
 C        -2.076022         0.537374        -1.989420
 C        -0.588590         0.341956        -2.013503
 C         0.353409         1.341329        -1.462738
 C         0.273689         1.078599         0.045838
 O        -0.951012         0.282041         0.234455
 C         1.475577         0.178164         0.508966
 O         2.487795         0.070042        -0.096368
 H        -2.314266        -2.461074        -0.719063
 H        -0.624002        -2.421934        -1.284767
 H        -0.899195        -1.853913         0.332633
 H        -2.565284         0.165272        -2.926384
 H        -2.573824         1.327822        -1.407731
 H        -0.055892        -0.215081        -2.810504
 H         1.364787         1.079082        -1.750549
 H         0.157999         2.361044        -1.779140
 H         0.197184         1.897568         0.735153
 H         1.405883        -0.195882         1.538107
