19
Iteration:  2657charge 0 multiplicity 1
 C        -1.491985        -1.931601        -0.878296
 C        -1.371565        -0.374938        -0.937343
 C        -2.260299         0.564000        -1.809629
 C        -0.684779         0.239797        -2.114937
 C         0.381491         1.160812        -1.643637
 C         0.408988         0.976418        -0.095983
 O        -0.873973         0.313581         0.307587
 C         1.532396         0.150019         0.465779
 O         2.787105         0.390095         0.317122
 H        -2.514759        -2.104209        -0.481057
 H        -1.441171        -2.399287        -1.954110
 H        -0.833888        -2.516744        -0.038393
 H        -2.935088         0.050124        -2.446672
 H        -2.460256         1.534437        -1.394327
 H        -0.600253        -0.254495        -3.076724
 H         1.341769         0.899474        -2.034756
 H         0.211713         2.199077        -1.873333
 H         0.277337         2.004677         0.447039
 H         1.183083        -0.594761         1.222209
