19
Iteration:  3011
 C        -1.315552        -1.886052        -0.661444
 C        -1.283435        -0.411056        -0.976924
 C        -2.013667         0.500966        -1.881931
 C        -0.563536         0.266055        -2.149101
 C         0.454286         1.340510        -1.406250
 C         0.246455         1.024241         0.074384
 O        -1.014773         0.328874         0.291320
 C         1.496908         0.207551         0.543662
 O         2.422938         0.120016        -0.154365
 H        -2.380880        -2.262096        -0.866641
 H        -0.847630        -2.413953        -1.478276
 H        -0.849888        -2.001679         0.295086
 H        -2.689621        -0.015494        -2.626060
 H        -2.269849         1.525224        -1.543724
 H        -0.113375        -0.297507        -2.990366
 H         1.471395         1.245848        -1.740556
 H         0.130884         2.326463        -1.691622
 H         0.250421         1.929512         0.573729
 H         1.498558        -0.244570         1.550002
