19
Iteration:  4081charge 0 multiplicity 1
 C        -2.206459        -1.817923        -0.972091
 C        -1.350875        -0.524382        -1.064255
 C        -1.974365         0.660836        -1.825238
 C        -0.602292         0.016720        -2.240454
 C         0.661296         0.759092        -1.753795
 C         0.379997         0.829375        -0.180366
 O        -0.642279        -0.109441         0.097042
 C         1.536126         0.692570         0.870979
 O         2.694445         0.897571         0.657156
 H        -1.966364        -2.338726        -1.968764
 H        -2.143476        -2.456163        -0.157388
 H        -3.240991        -1.435037        -0.995721
 H        -2.883660         0.405843        -2.423045
 H        -1.876447         1.563492        -1.191401
 H        -0.619205        -0.370756        -3.253008
 H         1.554705         0.149067        -1.931292
 H         0.717356         1.778697        -2.112495
 H         0.100658         1.716170         0.216608
 H         1.222823         0.469643         1.932355
