19
Iteration:   923charge 0 multiplicity 1
 C        -1.498417        -1.927410        -0.847946
 C        -1.315507        -0.467361        -0.921143
 C        -1.972340         0.678705        -1.731356
 C        -0.524795         0.086049        -2.039301
 C         0.407319         1.240229        -1.562003
 C         0.238754         1.044872        -0.029748
 O        -0.892837         0.230119         0.298126
 C         1.434298         0.296900         0.499406
 O         2.533442         0.280465         0.016198
 H        -2.403792        -2.228365        -0.437731
 H        -1.598628        -2.196552        -1.843336
 H        -0.526611        -2.292715        -0.443278
 H        -2.739976         0.399432        -2.451694
 H        -2.076275         1.719303        -1.393733
 H        -0.419506        -0.599108        -2.842112
 H         1.503064         0.927690        -1.818639
 H         0.480395         2.329359        -2.034424
 H         0.169239         2.051497         0.570745
 H         1.127111        -0.222912         1.439517
