19
Iteration:  2632
 C        -1.524952        -1.859316        -0.844322
 C        -1.403720        -0.403821        -0.948565
 C        -2.178783         0.551803        -1.768648
 C        -0.671015         0.310370        -2.090447
 C         0.476027         1.112357        -1.599314
 C         0.408119         0.867121        -0.020893
 O        -0.942105         0.339979         0.172967
 C         1.621035         0.075443         0.502723
 O         2.651663         0.511780         0.211822
 H        -2.391704        -2.212323        -0.284054
 H        -1.448919        -2.377162        -1.918082
 H        -0.684661        -2.187808        -0.155824
 H        -2.936523         0.002026        -2.379709
 H        -2.419690         1.438595        -1.169049
 H        -0.568162        -0.328667        -2.986681
 H         1.331927         0.489550        -1.904413
 H         0.486611         2.152503        -1.762155
 H         0.182334         1.830690         0.626745
 H         1.376928        -0.784054         1.197003
