19
Iteration:  3716
 C        -2.071429        -1.845804        -1.046776
 C        -1.490680        -0.367459        -1.096418
 C        -1.941270         0.800747        -1.813299
 C        -0.635846         0.183226        -2.229777
 C         0.666462         0.481639        -1.566631
 C         0.400859         0.727854        -0.090056
 O        -0.727833        -0.178800         0.125781
 C         1.729616         0.413701         0.597362
 O         2.519500         1.285464         0.737219
 H        -3.109444        -1.789217        -0.774201
 H        -1.926987        -2.554130        -2.029250
 H        -1.597339        -2.250339        -0.167740
 H        -2.703162         0.625427        -2.545416
 H        -1.956852         1.714872        -1.242716
 H        -0.643369        -0.454959        -3.153025
 H         1.134522        -0.514436        -1.776536
 H         1.394018         1.203286        -2.038727
 H         0.062388         1.798153         0.149333
 H         1.793233        -0.702668         0.924835
