19
Iteration:  2476
 C        -1.545955        -1.899470        -0.930660
 C        -1.347294        -0.456924        -0.897482
 C        -2.130739         0.607488        -1.703784
 C        -0.698764         0.238282        -2.055762
 C         0.519159         1.080147        -1.602045
 C         0.272878         0.968722        -0.062100
 O        -0.838345         0.254354         0.256654
 C         1.535864         0.290337         0.502340
 O         2.667783         0.400491         0.165026
 H        -2.684950        -2.206481        -0.545434
 H        -1.476465        -2.362430        -1.915288
 H        -0.838464        -2.411619        -0.224237
 H        -2.723221         0.274066        -2.556967
 H        -2.446390         1.549069        -1.327790
 H        -0.613406        -0.205371        -3.037038
 H         1.522578         0.689692        -1.734921
 H         0.458939         2.043714        -2.130069
 H         0.057569         1.990041         0.472943
 H         1.217581        -0.292488         1.438995
