19
Iteration:  1255
 C        -1.635136        -1.897017        -0.815169
 C        -1.254394        -0.394488        -0.964751
 C        -2.111101         0.542014        -1.776007
 C        -0.660862         0.189656        -2.166319
 C         0.284656         1.272934        -1.642574
 C         0.306052         1.065605        -0.095124
 O        -0.721908         0.168588         0.301252
 C         1.479024         0.253321         0.400817
 O         2.740127         0.320412         0.347463
 H        -2.579392        -1.972489        -0.308125
 H        -1.842277        -2.372333        -1.831293
 H        -0.928625        -2.376186        -0.134274
 H        -2.877851         0.041061        -2.328214
 H        -2.269736         1.462283        -1.309089
 H        -0.258182        -0.349334        -3.016765
 H         1.389345         1.236656        -2.159959
 H        -0.096266         2.344490        -2.017607
 H         0.273910         1.825117         0.611606
 H         1.012667        -0.562800         1.019719
