19
Iteration:  2202
 C        -1.515143        -1.925356        -0.695646
 C        -1.329328        -0.366855        -0.947711
 C        -2.100524         0.484495        -1.894510
 C        -0.621477         0.285763        -2.128329
 C         0.375664         1.288849        -1.509598
 C         0.315800         0.967978         0.046839
 O        -0.953913         0.314410         0.181990
 C         1.502929         0.051029         0.409954
 O         2.720283         0.369313         0.175954
 H        -1.866435        -1.990324         0.362539
 H        -2.105451        -2.380676        -1.481679
 H        -0.499370        -2.300738        -0.840490
 H        -2.670036         0.018402        -2.724349
 H        -2.569266         1.415990        -1.571485
 H        -0.127031        -0.353106        -2.819418
 H         1.385024         1.334033        -1.909987
 H         0.184587         2.384860        -1.404381
 H         0.354495         1.953101         0.768250
 H         1.117002        -0.963148         0.709555
