19
Iteration:  2987charge 0 multiplicity 1
 C        -1.443283        -1.927162        -0.832673
 C        -1.239302        -0.408122        -0.910789
 C        -2.019263         0.370185        -1.906386
 C        -0.519684         0.251201        -1.984483
 C         0.359067         1.429915        -1.437014
 C         0.281005         1.084384         0.043788
 O        -0.908996         0.393941         0.307188
 C         1.448392         0.287471         0.487035
 O         2.518791         0.050893        -0.080126
 H        -2.519816        -2.059622        -0.616366
 H        -1.299382        -2.440264        -1.683710
 H        -0.848418        -2.274300        -0.015913
 H        -2.639372        -0.323321        -2.542549
 H        -2.431486         1.369098        -1.616862
 H        -0.117207        -0.338789        -2.806384
 H         1.365772         1.334593        -1.881750
 H        -0.075672         2.427314        -1.738701
 H         0.269393         1.995432         0.636205
 H         1.137028        -0.378072         1.305339
