19
Iteration:  4900
 C        -1.807252        -1.811048        -0.754744
 C        -1.271596        -0.448221        -1.124712
 C        -1.877487         0.358721        -2.177605
 C        -0.403205         0.035735        -2.194973
 C         0.631433         1.032994        -1.612509
 C         0.292239         1.032888        -0.072670
 O        -0.909368         0.238693         0.077636
 C         1.316237         0.478107         0.810264
 O         2.491121         0.551417         0.628646
 H        -1.743193        -1.961045         0.401304
 H        -2.738582        -1.817044        -1.165664
 H        -1.049824        -2.569638        -1.099059
 H        -2.413904        -0.202884        -2.950738
 H        -2.204246         1.367699        -1.904100
 H         0.110346        -0.828362        -2.755865
 H         1.670716         0.746492        -1.899169
 H         0.458170         2.093608        -1.991655
 H         0.067958         2.075377         0.233735
 H         0.968386        -0.202787         1.551611
