19
Iteration:  4090
 C        -2.276431        -1.887081        -1.005269
 C        -1.376836        -0.515585        -1.040544
 C        -1.932522         0.679376        -1.861987
 C        -0.602811         0.042648        -2.236482
 C         0.648522         0.840195        -1.685245
 C         0.359226         0.806087        -0.148164
 O        -0.608453        -0.153779         0.106677
 C         1.534734         0.720715         0.896396
 O         2.730297         0.883152         0.608443
 H        -2.322758        -2.532110        -1.949286
 H        -2.065475        -2.398002        -0.129021
 H        -3.249857        -1.640730        -0.970747
 H        -2.860943         0.489224        -2.476287
 H        -2.000110         1.752776        -1.461460
 H        -0.395432        -0.608382        -3.133921
 H         1.523656         0.226683        -1.938417
 H         0.924053         1.683686        -2.253403
 H         0.063297         1.911918         0.075576
 H         1.209983         0.694932         1.973068
