19
Iteration:  1740
 C        -1.355070        -1.904601        -0.782732
 C        -1.285299        -0.398947        -0.932378
 C        -2.126971         0.439874        -1.836562
 C        -0.604773         0.277047        -2.085539
 C         0.416406         1.365154        -1.510105
 C         0.352763         1.039200        -0.007179
 O        -0.933412         0.329823         0.260960
 C         1.502938         0.288803         0.583840
 O         2.508772         0.096274        -0.005786
 H        -2.426496        -2.369890        -0.525583
 H        -1.229380        -2.193284        -1.867807
 H        -0.578901        -2.314928        -0.146956
 H        -2.897124        -0.006212        -2.479938
 H        -2.346257         1.415316        -1.431920
 H        -0.365886        -0.428591        -2.903467
 H         1.377886         1.337963        -1.934552
 H         0.002147         2.339795        -1.678643
 H         0.183552         1.972700         0.514358
 H         1.273905        -0.365732         1.406667
