19
Iteration:   471
 C        -1.558057        -1.864605        -0.678373
 C        -1.364181        -0.406688        -0.980992
 C        -2.095424         0.458750        -1.942274
 C        -0.597606         0.334622        -2.182237
 C         0.313905         1.346086        -1.468219
 C         0.339302         0.926648         0.011006
 O        -0.857558         0.272374         0.232863
 C         1.571590         0.287951         0.594703
 O         2.670602         0.166115         0.026221
 H        -2.363929        -2.127010         0.111210
 H        -1.884368        -2.469821        -1.643940
 H        -0.684002        -2.289293        -0.131259
 H        -2.716658        -0.045369        -2.697246
 H        -2.407447         1.462500        -1.546553
 H        -0.158003        -0.296225        -2.952417
 H         1.267158         1.330034        -2.025082
 H        -0.205347         2.289894        -1.400590
 H         0.359249         1.906943         0.543398
 H         1.475161        -0.288025         1.534982
