19
Iteration:  2741charge 0 multiplicity 1
 C        -1.642094        -1.899009        -0.789932
 C        -1.371032        -0.357674        -0.937606
 C        -2.037813         0.454572        -1.991738
 C        -0.517645         0.235529        -2.077231
 C         0.387108         1.195675        -1.462563
 C         0.326110         0.972144         0.091864
 O        -0.921930         0.245407         0.290803
 C         1.576505         0.210907         0.541938
 O         2.629138         0.429339         0.002844
 H        -2.012036        -2.027181         0.179373
 H        -2.414748        -2.226136        -1.558458
 H        -0.775107        -2.451452        -0.936041
 H        -2.752696         0.116382        -2.743871
 H        -2.307844         1.453851        -1.604568
 H        -0.071199        -0.468537        -2.775554
 H         1.434313         0.837117        -1.797877
 H         0.302048         2.360713        -1.718138
 H         0.163893         1.875896         0.566345
 H         1.465229        -0.522459         1.381016
