19
Iteration:  3324
 C        -1.647664        -1.843061        -0.797128
 C        -1.326819        -0.472397        -1.065970
 C        -2.117689         0.478805        -1.894537
 C        -0.679237         0.326194        -2.261253
 C         0.413127         1.152051        -1.616788
 C         0.300377         0.953859        -0.099809
 O        -0.830950         0.142678         0.220144
 C         1.556308         0.287598         0.733292
 O         2.763682         0.410648         0.366291
 H        -1.447154        -2.350637        -1.768262
 H        -1.053040        -2.215042         0.166128
 H        -2.693989        -1.856088        -0.496319
 H        -2.699484         0.011397        -2.728049
 H        -2.591598         1.425286        -1.582089
 H        -0.552540        -0.267065        -3.205281
 H         1.452430         1.201268        -1.946712
 H         0.091732         2.154907        -1.732493
 H         0.330917         2.055113         0.416877
 H         1.268892        -0.128514         1.712377
