19
Iteration:  2667
 C        -1.571552        -1.850400        -0.862573
 C        -1.346125        -0.401843        -0.939555
 C        -2.151208         0.509757        -1.788994
 C        -0.760043         0.219407        -2.121791
 C         0.344315         1.278816        -1.669723
 C         0.375244         1.025913        -0.112806
 O        -0.831630         0.231390         0.258730
 C         1.588082         0.192757         0.489726
 O         2.752293         0.325330         0.350182
 H        -2.522806        -2.158109        -0.451484
 H        -1.385579        -2.414588        -1.868006
 H        -0.669073        -2.070324        -0.171279
 H        -2.945030        -0.007230        -2.281381
 H        -2.483980         1.439396        -1.363296
 H        -0.373120        -0.477544        -2.833378
 H         1.280956         1.011263        -2.129747
 H         0.177554         2.205960        -2.077505
 H         0.312870         1.981469         0.583274
 H         1.140559        -0.622186         1.114185
