19
Iteration:  3622charge 0 multiplicity 1
 C        -2.070107        -1.803844        -0.874324
 C        -1.340634        -0.488786        -1.111221
 C        -2.056850         0.643620        -1.852303
 C        -0.621606         0.105276        -2.323393
 C         0.585198         0.860292        -1.628884
 C         0.382896         0.827103        -0.099396
 O        -0.534823        -0.216705         0.013428
 C         1.486242         0.676965         0.872711
 O         2.627868         0.795667         0.591688
 H        -2.481017        -2.031931        -1.929080
 H        -1.531391        -2.538110        -0.351314
 H        -3.003902        -1.469001        -0.325688
 H        -2.899169         0.256668        -2.396788
 H        -2.049319         1.671305        -1.482106
 H        -0.341053        -0.267502        -3.347134
 H         1.587450         0.510110        -1.844659
 H         0.712997         1.901352        -1.877219
 H         0.098265         1.960803         0.337766
 H         1.056573         0.373824         1.930033
