19
Iteration:  2373
 C        -1.666077        -1.898790        -0.889325
 C        -1.306246        -0.402416        -0.929408
 C        -2.045010         0.491049        -1.830255
 C        -0.525849         0.226149        -2.101599
 C         0.480993         1.202044        -1.571475
 C         0.314495         0.965877         0.065934
 O        -0.844573         0.201275         0.344390
 C         1.432805         0.229892         0.549141
 O         2.583067         0.445905         0.026096
 H        -1.850729        -2.027143         0.181263
 H        -2.560891        -2.131302        -1.521107
 H        -0.795209        -2.467208        -1.072041
 H        -2.691384         0.021105        -2.621328
 H        -2.308277         1.532948        -1.473342
 H        -0.307988        -0.386992        -2.970445
 H         1.494333         0.775431        -1.881385
 H         0.442842         2.303294        -1.913340
 H         0.162108         2.051965         0.509923
 H         1.379740        -0.306145         1.508086
