19
Iteration:   508
 C        -1.612092        -1.917127        -0.862621
 C        -1.312713        -0.371543        -0.847081
 C        -1.993567         0.422241        -1.891710
 C        -0.584351         0.206706        -2.058863
 C         0.314131         1.303252        -1.495318
 C         0.327122         1.120299        -0.026955
 O        -0.795388         0.275841         0.338002
 C         1.490527         0.302448         0.518755
 O         2.616453         0.169029         0.015577
 H        -2.265841        -2.155970        -0.077586
 H        -2.103215        -2.130801        -1.753500
 H        -0.727167        -2.540944        -0.873628
 H        -2.801927        -0.003399        -2.549488
 H        -2.217546         1.495708        -1.620543
 H        -0.256527        -0.470972        -2.850091
 H         1.466803         1.360504        -1.809755
 H         0.015366         2.368564        -1.677225
 H         0.138334         2.071536         0.532825
 H         1.073508        -0.425405         1.178963
