19
Iteration:  2859
 C        -1.411700        -1.897456        -0.813630
 C        -1.298210        -0.385876        -0.868531
 C        -2.094195         0.481197        -1.912218
 C        -0.671810         0.188082        -2.094016
 C         0.329116         1.352187        -1.567971
 C         0.311787         1.018367        -0.105376
 O        -0.890985         0.358173         0.278765
 C         1.505705         0.219156         0.470669
 O         2.633129         0.155482         0.207790
 H        -2.281313        -2.279352        -0.168054
 H        -1.220367        -2.245045        -1.929128
 H        -0.521960        -2.218990        -0.255870
 H        -2.805347         0.177866        -2.693883
 H        -2.486680         1.348520        -1.357952
 H        -0.313434        -0.371100        -2.932317
 H         1.263236         1.131024        -2.034764
 H        -0.031253         2.361210        -1.615028
 H         0.359448         1.948998         0.689743
 H         1.116066        -0.296331         1.394756
