19
Iteration:  4624
 C        -2.190053        -1.765762        -1.097930
 C        -1.424732        -0.456177        -1.044461
 C        -1.849080         0.728198        -1.800972
 C        -0.658219        -0.069532        -2.246804
 C         0.597385         0.672381        -1.731309
 C         0.448596         0.771757        -0.226665
 O        -0.665489        -0.209958         0.153659
 C         1.572365         0.564062         0.869733
 O         2.631243         1.183828         0.724633
 H        -2.100373        -2.064576         0.077956
 H        -3.176948        -1.544274        -1.613533
 H        -1.712187        -2.486768        -1.765898
 H        -2.770003         0.629848        -2.365551
 H        -1.679513         1.752143        -1.429097
 H        -0.610813        -0.883082        -3.006949
 H         1.583102         0.150633        -1.984263
 H         0.796896         1.603798        -2.203746
 H        -0.069877         1.631433         0.045576
 H         1.347209        -0.213284         1.740342
