19
Iteration:  2313
 C        -1.622745        -1.820932        -0.769587
 C        -1.312788        -0.424566        -0.935141
 C        -2.093505         0.473630        -1.902322
 C        -0.642479         0.289322        -2.127959
 C         0.314827         1.279809        -1.533227
 C         0.385670         0.927904        -0.028039
 O        -0.835633         0.187056         0.224340
 C         1.538250         0.246062         0.571057
 O         2.717538         0.349829         0.134355
 H        -2.592915        -1.987094        -0.147493
 H        -1.847942        -2.339603        -1.678633
 H        -0.802748        -2.476441        -0.247871
 H        -2.727979        -0.039251        -2.583365
 H        -2.436503         1.479869        -1.668107
 H        -0.166765        -0.251350        -2.995938
 H         1.289935         1.141029        -2.010511
 H        -0.004692         2.301778        -1.461809
 H         0.055657         1.919206         0.606896
 H         1.326747        -0.507322         1.337544
