19
Iteration:   971charge 0 multiplicity 1
 C        -1.663961        -1.835883        -0.791176
 C        -1.337932        -0.416563        -0.979269
 C        -2.145158         0.402459        -1.968241
 C        -0.602306         0.327346        -2.126105
 C         0.374183         1.303325        -1.471118
 C         0.336598         0.994972         0.017734
 O        -0.822296         0.152642         0.222873
 C         1.605374         0.290945         0.636098
 O         2.693986         0.277999         0.090645
 H        -2.372271        -1.770991         0.094746
 H        -2.309706        -2.358189        -1.607250
 H        -0.720515        -2.319509        -0.447652
 H        -2.859085        -0.161114        -2.616985
 H        -2.556821         1.402253        -1.702309
 H        -0.106420        -0.275236        -2.940758
 H         1.331364         1.173523        -2.015340
 H         0.134981         2.239728        -1.777042
 H         0.228076         1.827177         0.605383
 H         1.490507         0.033160         1.760954
