19
Iteration:  2312charge 0 multiplicity 1
 C        -1.613874        -1.813971        -0.773040
 C        -1.315744        -0.431068        -0.943428
 C        -2.100308         0.467429        -1.893113
 C        -0.641710         0.296610        -2.130269
 C         0.315292         1.278482        -1.537110
 C         0.386435         0.938534        -0.029415
 O        -0.826405         0.188216         0.222600
 C         1.546579         0.246202         0.566507
 O         2.706272         0.347231         0.141404
 H        -2.643962        -1.986438        -0.142366
 H        -1.860683        -2.359664        -1.658346
 H        -0.845044        -2.472682        -0.223366
 H        -2.707513        -0.056243        -2.594329
 H        -2.419492         1.477830        -1.650757
 H        -0.134200        -0.252182        -2.971307
 H         1.253880         1.133055        -2.015688
 H        -0.021253         2.278487        -1.457785
 H         0.088098         1.891654         0.637949
 H         1.302843        -0.521101         1.317023
