19
Iteration:   705charge 0 multiplicity 1
 C        -1.563335        -1.911214        -0.819780
 C        -1.182635        -0.414437        -0.862219
 C        -2.031339         0.385552        -1.865602
 C        -0.541506         0.241064        -2.032931
 C         0.365558         1.408867        -1.478773
 C         0.268672         1.040874         0.060420
 O        -0.959263         0.458007         0.280166
 C         1.476257         0.085850         0.436127
 O         2.625708         0.208385        -0.034500
 H        -2.354885        -2.067249        -0.066203
 H        -1.908730        -2.257798        -1.761997
 H        -0.692905        -2.581238        -0.435859
 H        -2.477708        -0.113986        -2.677771
 H        -2.469894         1.304765        -1.519024
 H        -0.268507        -0.351442        -2.936063
 H         1.461404         1.350269        -1.745046
 H        -0.081757         2.246630        -1.749422
 H         0.361284         1.946657         0.664301
 H         1.270079        -0.686703         1.236072
