19
Iteration:   386
 C        -1.449990        -1.820945        -0.748592
 C        -1.361181        -0.340916        -0.914944
 C        -2.093652         0.435672        -1.922471
 C        -0.603104         0.212709        -2.096774
 C         0.291343         1.335635        -1.455456
 C         0.309037         1.017751        -0.004137
 O        -0.948255         0.367481         0.276653
 C         1.553883         0.103358         0.393124
 O         2.713645         0.178687         0.124711
 H        -2.059240        -2.077192         0.056232
 H        -1.796207        -2.304535        -1.652534
 H        -0.455778        -2.125836        -0.691903
 H        -2.752024        -0.247169        -2.593558
 H        -2.633276         1.480184        -1.659490
 H        -0.252040        -0.291839        -2.994163
 H         1.433167         1.282908        -1.837023
 H        -0.010171         2.361998        -1.756612
 H         0.389879         1.930265         0.639374
 H         1.135334        -0.582085         1.249449
