19
Iteration:  3122
 C        -1.335807        -1.824704        -0.603666
 C        -1.226041        -0.353691        -0.956110
 C        -2.134178         0.476225        -1.942723
 C        -0.576994         0.371183        -2.120435
 C         0.387879         1.358542        -1.466524
 C         0.303641         0.922074         0.021509
 O        -0.997367         0.309824         0.229283
 C         1.471101         0.125319         0.510074
 O         2.558647         0.145727        -0.012572
 H        -2.289181        -2.251050        -0.190157
 H        -1.158209        -2.448287        -1.543911
 H        -0.456836        -2.072428         0.078226
 H        -2.613656        -0.008061        -2.769931
 H        -2.693823         1.374193        -1.648539
 H        -0.107828        -0.246085        -2.955618
 H         1.349385         1.347184        -1.968491
 H        -0.103319         2.287901        -1.628350
 H         0.246905         1.836850         0.670334
 H         1.167354        -0.524281         1.366838
