19
Iteration:  2564charge 0 multiplicity 1
 C        -1.824807        -1.839011        -0.879235
 C        -1.267550        -0.441945        -0.908587
 C        -2.005122         0.422523        -1.867775
 C        -0.594421         0.224598        -2.153921
 C         0.271662         1.292807        -1.540590
 C         0.363017         0.966262        -0.032260
 O        -0.792734         0.155306         0.254276
 C         1.539759         0.267733         0.509162
 O         2.784171         0.422424         0.225400
 H        -2.195353        -1.930598         0.204208
 H        -2.690140        -1.788343        -1.491293
 H        -1.157164        -2.640150        -1.026927
 H        -2.774234        -0.098346        -2.411487
 H        -2.232174         1.348359        -1.305069
 H        -0.186215        -0.292070        -3.015584
 H         1.220688         1.275336        -2.100679
 H        -0.327812         2.224390        -1.671846
 H         0.350034         1.976916         0.534920
 H         1.355708        -0.550435         1.277534
