19
Iteration:  4733charge 0 multiplicity 1
 C        -1.918151        -1.854557        -1.010839
 C        -1.338743        -0.458639        -1.039399
 C        -1.946462         0.526827        -2.004422
 C        -0.569492         0.035067        -2.187865
 C         0.649058         0.753596        -1.689800
 C         0.326080         1.069382        -0.079553
 O        -0.814688         0.129759         0.198358
 C         1.460821         0.541698         0.732347
 O         2.641498         0.777961         0.698969
 H        -1.614688        -2.726268        -1.686276
 H        -1.764532        -2.463236        -0.099935
 H        -2.982580        -1.754251        -1.136939
 H        -2.629487         0.081929        -2.715461
 H        -2.076861         1.554231        -1.805348
 H        -0.314223        -0.655983        -2.905434
 H         1.488068         0.004426        -1.870468
 H         0.741369         1.615715        -2.267249
 H        -0.057009         2.162783         0.268955
 H         1.034758        -0.200700         1.424220
