19
Iteration:  2642charge 0 multiplicity 1
 C        -1.539718        -1.915505        -0.827549
 C        -1.360746        -0.405055        -0.919374
 C        -2.164359         0.534701        -1.775691
 C        -0.790645         0.309008        -2.120696
 C         0.464711         1.106088        -1.554286
 C         0.368271         0.870066        -0.062303
 O        -0.904530         0.366844         0.197605
 C         1.538059         0.126971         0.531217
 O         2.736019         0.475162         0.234958
 H        -2.480170        -2.368009        -0.549966
 H        -1.319414        -2.216041        -1.894663
 H        -0.691928        -2.276837        -0.316531
 H        -2.859886         0.242976        -2.610354
 H        -2.533330         1.440645        -1.266549
 H        -0.485072        -0.342402        -2.949317
 H         1.428183         0.827770        -2.039597
 H         0.472245         2.130105        -1.920793
 H         0.581218         1.885360         0.462672
 H         1.396785        -0.815526         1.104571
