19
Iteration:  4936
 C        -1.719023        -1.903539        -0.850813
 C        -1.285919        -0.512985        -0.999464
 C        -1.846767         0.368165        -2.174921
 C        -0.378816        -0.013166        -2.119030
 C         0.589792         1.026619        -1.642618
 C         0.270037         1.076522        -0.156345
 O        -0.996022         0.425097         0.101327
 C         1.353709         0.546967         0.773910
 O         2.549404         0.438585         0.672367
 H        -1.467636        -2.424485         0.016746
 H        -2.794930        -2.162241        -0.821369
 H        -1.523289        -2.527936        -1.753127
 H        -2.556351         0.000037        -2.963870
 H        -2.028490         1.422144        -1.884021
 H        -0.017332        -0.790840        -2.711402
 H         1.618512         0.798425        -1.717301
 H         0.341310         2.065641        -2.021686
 H         0.008333         2.175427         0.177599
 H         0.772937         0.056917         1.533206
