19
Iteration:  4898
 C        -1.800977        -1.813020        -0.741982
 C        -1.279763        -0.431853        -1.117795
 C        -1.876355         0.365055        -2.192617
 C        -0.394455         0.040659        -2.203544
 C         0.621732         1.030018        -1.594470
 C         0.295435         1.035336        -0.064958
 O        -0.909855         0.217159         0.072513
 C         1.305604         0.478075         0.797978
 O         2.503443         0.558019         0.626109
 H        -1.721724        -1.902035         0.404764
 H        -2.753205        -1.829046        -1.216069
 H        -1.054896        -2.520403        -1.069352
 H        -2.403168        -0.181248        -2.935730
 H        -2.220900         1.358527        -1.940310
 H         0.101015        -0.827871        -2.728594
 H         1.655974         0.662641        -1.923446
 H         0.423151         2.043830        -1.963276
 H         0.112123         2.022527         0.237808
 H         0.908609        -0.187501         1.562268
