19
Iteration:  3736charge 0 multiplicity 1
 C        -2.207834        -1.756397        -1.020412
 C        -1.424047        -0.461883        -1.078929
 C        -1.940787         0.827584        -1.805660
 C        -0.662475         0.054647        -2.292319
 C         0.711609         0.517693        -1.622097
 C         0.394005         0.709659        -0.146313
 O        -0.685754        -0.227297         0.131928
 C         1.736934         0.459494         0.590442
 O         2.519237         1.321934         0.830145
 H        -3.047261        -1.630634        -0.379716
 H        -2.321317        -2.130952        -2.024366
 H        -1.665852        -2.635110        -0.563403
 H        -2.738628         0.674899        -2.535128
 H        -1.853158         1.700076        -1.169648
 H        -0.469661        -0.480880        -3.221978
 H         1.461769        -0.216628        -1.700157
 H         1.084787         1.457935        -2.044015
 H        -0.095034         1.663882         0.254884
 H         2.027058        -0.622054         0.702887
