19
Iteration:  4747charge 0 multiplicity 1
 C        -1.953582        -1.876920        -0.872825
 C        -1.298879        -0.480030        -1.063840
 C        -1.972336         0.517491        -1.996341
 C        -0.476341         0.031370        -2.232666
 C         0.675790         0.880236        -1.697534
 C         0.251039         1.002503        -0.205252
 O        -0.834258         0.131562         0.158269
 C         1.455675         0.501338         0.783315
 O         2.629257         0.741345         0.710763
 H        -1.740287        -2.373410        -1.928068
 H        -1.490910        -2.277483        -0.022778
 H        -3.093163        -1.814259        -0.657473
 H        -2.688055         0.079194        -2.671587
 H        -2.234862         1.490298        -1.592822
 H        -0.375399        -0.508381        -3.176228
 H         1.614084         0.310507        -1.592915
 H         1.013669         1.834575        -2.204963
 H         0.000738         2.087915         0.038654
 H         1.106421        -0.212189         1.530264
