19
Iteration:  2659
 C        -1.500013        -1.921079        -0.888865
 C        -1.368547        -0.382051        -0.945579
 C        -2.239951         0.559772        -1.806813
 C        -0.704849         0.229881        -2.109210
 C         0.370442         1.178078        -1.644080
 C         0.410221         0.995606        -0.097057
 O        -0.866437         0.298509         0.305871
 C         1.520371         0.152745         0.469571
 O         2.798277         0.379397         0.323619
 H        -2.547448        -2.097454        -0.452523
 H        -1.449708        -2.365641        -1.883194
 H        -0.815556        -2.416784        -0.024317
 H        -2.935529        -0.006654        -2.396533
 H        -2.466264         1.531333        -1.372405
 H        -0.529419        -0.323096        -3.063350
 H         1.353963         0.955808        -2.087978
 H         0.231262         2.296609        -1.996368
 H         0.243543         1.916638         0.442686
 H         1.163326        -0.602375         1.223152
