19
Iteration:  3805
 C        -2.258232        -1.723925        -0.754452
 C        -1.394326        -0.471334        -1.098390
 C        -1.900174         0.868917        -1.873315
 C        -0.624019         0.104294        -2.387700
 C         0.713313         0.529154        -1.905772
 C         0.445675         0.685579        -0.289992
 O        -0.536983        -0.399606         0.069453
 C         1.659697         0.493724         0.658982
 O         2.417536         1.345479         1.115191
 H        -2.149225        -1.913791         0.273313
 H        -3.299552        -1.429594        -1.156314
 H        -2.169054        -2.573700        -1.287463
 H        -2.693066         0.571310        -2.523391
 H        -1.947128         1.795489        -1.352197
 H        -0.979310        -0.513574        -3.202428
 H         1.490652        -0.135353        -2.027912
 H         1.022265         1.531188        -2.197994
 H         0.028519         1.737114        -0.315105
 H         1.919967        -0.543119         0.857027
