19
Iteration:   969
 C        -1.675152        -1.847146        -0.803843
 C        -1.313816        -0.399406        -0.953972
 C        -2.142218         0.394637        -1.955179
 C        -0.602489         0.317442        -2.112426
 C         0.377370         1.296019        -1.464184
 C         0.337967         0.996733         0.013724
 O        -0.811179         0.159345         0.207910
 C         1.563815         0.287930         0.647732
 O         2.681465         0.285319         0.074243
 H        -2.341884        -1.799943         0.010353
 H        -2.265752        -2.383668        -1.568775
 H        -0.704640        -2.309688        -0.457182
 H        -2.871261        -0.128620        -2.643687
 H        -2.523612         1.442823        -1.717996
 H        -0.141066        -0.231222        -2.938725
 H         1.405462         1.107378        -2.017344
 H         0.163883         2.263752        -1.887689
 H         0.292504         1.840786         0.724914
 H         1.522809         0.009627         1.705142
