19
Iteration:  2514charge 0 multiplicity 1
 C        -1.642876        -1.861280        -0.785700
 C        -1.343976        -0.360433        -0.987189
 C        -2.097074         0.641978        -1.861190
 C        -0.618802         0.200075        -2.129886
 C         0.412322         1.151098        -1.539935
 C         0.250929         0.917093         0.026079
 O        -0.854458         0.096293         0.263041
 C         1.598501         0.241491         0.554202
 O         2.680863         0.468405         0.109835
 H        -2.230912        -1.972634         0.089863
 H        -2.018721        -2.459080        -1.727901
 H        -0.604207        -2.314631        -0.501820
 H        -2.690325         0.230292        -2.693709
 H        -2.262872         1.687057        -1.510881
 H        -0.572227        -0.286824        -3.121431
 H         1.368250         0.672101        -1.806052
 H         0.318844         2.219155        -1.756422
 H         0.219377         1.876269         0.465977
 H         1.544336        -0.361350         1.468936
