19
Iteration:   323charge 0 multiplicity 1
 C        -1.481228        -1.812702        -0.710680
 C        -1.275343        -0.407493        -0.977226
 C        -1.999537         0.520747        -1.920967
 C        -0.568537         0.182760        -2.103415
 C         0.288502         1.342185        -1.542454
 C         0.258062         1.114305         0.033291
 O        -0.924179         0.280145         0.310387
 C         1.502079         0.078889         0.429922
 O         2.664388         0.227986         0.072616
 H        -2.229035        -2.135892         0.094054
 H        -1.826558        -2.311684        -1.609267
 H        -0.554341        -2.349265        -0.291020
 H        -2.904694         0.258247        -2.527229
 H        -2.375645         1.410774        -1.308103
 H        -0.270706        -0.508675        -2.909638
 H         1.278558         1.319078        -1.800565
 H        -0.074284         2.301173        -1.833561
 H         0.190349         1.997564         0.674032
 H         1.240303        -0.849609         1.066336
