19
Iteration:  3560charge 0 multiplicity 1
 C        -1.825073        -1.865119        -1.082811
 C        -1.381041        -0.436485        -1.062402
 C        -2.034003         0.600941        -1.843168
 C        -0.576423         0.132962        -2.145198
 C         0.612272         0.828425        -1.635180
 C         0.327299         0.945544        -0.008424
 O        -0.795517         0.008195         0.243385
 C         1.523042         0.631084         0.883104
 O         2.601569         0.655580         0.318186
 H        -1.071465        -2.585470        -1.462699
 H        -2.102835        -2.304872        -0.126778
 H        -2.789506        -1.943477        -1.726194
 H        -2.858516         0.466820        -2.565174
 H        -2.040837         1.647425        -1.390898
 H        -0.481873        -0.402698        -3.114412
 H         1.400009         0.073394        -1.651239
 H         0.843476         1.731083        -2.250465
 H         0.044535         1.952495         0.337808
 H         1.414362         0.187251         1.892581
