19
Iteration:  2131charge 0 multiplicity 1
 C        -1.534710        -1.877003        -0.791430
 C        -1.337710        -0.357755        -0.948867
 C        -2.100644         0.460699        -1.949058
 C        -0.676268         0.313016        -2.093763
 C         0.385148         1.294343        -1.500578
 C         0.340821         0.913851         0.034759
 O        -0.975276         0.256086         0.276777
 C         1.585170         0.226080         0.574152
 O         2.737009         0.288042         0.038533
 H        -2.400786        -2.132179        -0.152967
 H        -1.629675        -2.404462        -1.765868
 H        -0.550428        -2.359231        -0.361067
 H        -2.764706        -0.077318        -2.613898
 H        -2.446616         1.421981        -1.620139
 H        -0.261412        -0.525866        -2.791293
 H         1.473270         1.245095        -1.858752
 H         0.039959         2.262477        -1.739514
 H         0.177033         1.929349         0.611137
 H         1.236715        -0.257835         1.530777
