19
Iteration:  1259
 C        -1.640168        -1.886354        -0.806606
 C        -1.270370        -0.390983        -1.008466
 C        -2.123678         0.524696        -1.766109
 C        -0.646246         0.218616        -2.175110
 C         0.279473         1.271716        -1.645005
 C         0.328818         1.069107        -0.052000
 O        -0.744340         0.152473         0.286770
 C         1.546187         0.284573         0.420066
 O         2.721880         0.305157         0.339875
 H        -2.592090        -2.010872        -0.221345
 H        -1.746540        -2.396348        -1.689654
 H        -0.897515        -2.400488        -0.241584
 H        -2.863771         0.021523        -2.428739
 H        -2.267514         1.574034        -1.359131
 H        -0.310293        -0.459599        -3.002068
 H         1.191888         1.101751        -2.184345
 H        -0.062965         2.215329        -1.948883
 H         0.203906         2.037183         0.641938
 H         1.030387        -0.615267         1.001562
