19
Iteration:  1659charge 0 multiplicity 1
 C        -1.542848        -1.932289        -0.779949
 C        -1.220878        -0.412385        -0.959850
 C        -1.983707         0.374695        -1.832598
 C        -0.534516         0.310996        -2.123440
 C         0.284203         1.476520        -1.524466
 C         0.310156         1.166453        -0.012477
 O        -0.870694         0.255382         0.335392
 C         1.464212         0.188977         0.418469
 O         2.584886         0.122335         0.086896
 H        -2.016864        -1.980352         0.282771
 H        -2.145461        -2.423449        -1.558910
 H        -0.692396        -2.704266        -0.846432
 H        -2.693256        -0.156166        -2.480740
 H        -2.228408         1.372995        -1.498195
 H        -0.160852        -0.429560        -2.773622
 H         1.334287         1.532424        -2.078004
 H        -0.298265         2.458357        -1.752019
 H         0.088188         2.187491         0.603558
 H         1.072880        -0.494037         1.304518
