19
Iteration:  2754charge 0 multiplicity 1
 C        -1.592127        -1.826281        -0.836471
 C        -1.392825        -0.400196        -0.857739
 C        -1.969892         0.510558        -1.957730
 C        -0.551453         0.139068        -2.035248
 C         0.481576         1.217643        -1.470278
 C         0.239552         0.961573         0.016224
 O        -0.938972         0.242225         0.334557
 C         1.507549         0.191021         0.583036
 O         2.602275         0.452233        -0.068150
 H        -2.093890        -2.215737        -0.021808
 H        -2.332255        -2.107496        -1.651597
 H        -0.624155        -2.363832        -0.995814
 H        -2.644264        -0.013681        -2.607937
 H        -2.097859         1.560792        -1.795392
 H        -0.217880        -0.655845        -2.726915
 H         1.595773         1.147817        -1.760494
 H         0.242687         2.261656        -1.903485
 H         0.408289         1.849702         0.708184
 H         1.477505        -0.604572         1.380773
