19
Iteration:  4230charge 0 multiplicity 1
 C        -1.923877        -1.848650        -0.758854
 C        -1.334287        -0.437429        -1.103944
 C        -2.005638         0.621116        -1.905001
 C        -0.657625         0.082783        -2.314390
 C         0.600250         0.763525        -1.850495
 C         0.361407         0.950879        -0.188645
 O        -0.736301         0.115574         0.058652
 C         1.570056         0.356847         0.693347
 O         2.607014         0.849880         0.921456
 H        -2.937678        -2.047927        -1.346524
 H        -1.050240        -2.602423        -0.920233
 H        -2.273605        -1.840764         0.294651
 H        -2.855999         0.303543        -2.537563
 H        -2.117263         1.636409        -1.489485
 H        -0.725359        -0.575795        -3.156111
 H         1.572350         0.296945        -2.071398
 H         0.720282         1.717667        -2.366831
 H         0.088481         1.924902         0.102868
 H         1.336407        -0.629135         1.151613
