19
Iteration:   835charge 0 multiplicity 1
 C        -1.442870        -1.813808        -0.761162
 C        -1.254141        -0.379224        -0.911042
 C        -2.002507         0.496550        -1.829439
 C        -0.622204         0.208290        -2.117818
 C         0.292457         1.345240        -1.563851
 C         0.284370         1.072397        -0.057375
 O        -0.843908         0.250460         0.259285
 C         1.391033         0.210618         0.492655
 O         2.619031         0.123922         0.149885
 H        -1.943996        -2.175820         0.149683
 H        -1.915264        -2.259520        -1.603851
 H        -0.391240        -2.311555        -0.730343
 H        -2.740684         0.109291        -2.501334
 H        -2.149419         1.500194        -1.556039
 H        -0.237103        -0.414160        -2.951627
 H         1.212417         1.547149        -2.167253
 H        -0.293466         2.343771        -1.835924
 H         0.227918         1.973663         0.500070
 H         1.078337        -0.504551         1.317976
