19
Iteration:  1592
 C        -1.396354        -1.849754        -0.729640
 C        -1.396486        -0.398710        -0.924273
 C        -2.064877         0.516371        -1.917472
 C        -0.637568         0.300570        -2.052722
 C         0.415401         1.189900        -1.424528
 C         0.299812         0.924291         0.033980
 O        -1.016063         0.343259         0.212302
 C         1.498332         0.091848         0.420205
 O         2.652048         0.354761         0.027117
 H        -2.324157        -2.066954        -0.189337
 H        -1.156864        -2.424719        -1.660469
 H        -0.528251        -2.110357         0.010851
 H        -2.665067         0.052658        -2.684862
 H        -2.510295         1.416501        -1.541917
 H        -0.264413        -0.331339        -2.839268
 H         1.488446         1.161557        -1.831568
 H         0.218088         2.311616        -1.609220
 H         0.423698         1.802330         0.715089
 H         1.515489        -0.784177         1.116474
