19
Iteration:  1126charge 0 multiplicity 1
 C        -1.695722        -1.919132        -0.786781
 C        -1.291345        -0.412428        -0.918246
 C        -2.131702         0.366517        -1.867243
 C        -0.674228         0.299657        -2.100283
 C         0.321645         1.343112        -1.594741
 C         0.350957         1.084284        -0.045705
 O        -0.772167         0.232547         0.223687
 C         1.584220         0.235077         0.391119
 O         2.769266         0.301161         0.344138
 H        -2.459967        -1.948425         0.061361
 H        -2.182467        -2.261369        -1.698397
 H        -0.881311        -2.596439        -0.626697
 H        -2.878100        -0.014006        -2.529449
 H        -2.394309         1.340167        -1.519438
 H        -0.377145        -0.287287        -2.960051
 H         1.238236         1.071213        -2.089687
 H         0.069106         2.288944        -1.849459
 H         0.336143         2.102350         0.562949
 H         1.026269        -0.712008         0.823431
