19
Iteration:  4509charge 0 multiplicity 1
 C        -2.272141        -1.632021        -1.037770
 C        -1.421027        -0.450328        -1.046380
 C        -1.993541         0.652755        -1.842805
 C        -0.643551         0.074968        -2.218885
 C         0.652242         0.603684        -1.713560
 C         0.442154         0.663510        -0.143450
 O        -0.631011        -0.240935         0.106959
 C         1.754760         0.434695         0.519553
 O         2.557086         1.332989         0.965308
 H        -3.298215        -1.533020        -1.093562
 H        -1.897606        -2.386397        -1.730725
 H        -2.221337        -2.345842        -0.086017
 H        -2.915213         0.361191        -2.331302
 H        -1.841789         1.660921        -1.452957
 H        -0.597462        -0.623370        -3.025396
 H         1.428693        -0.010888        -2.058480
 H         0.963181         1.623060        -2.121623
 H         0.290069         1.698244         0.092181
 H         2.057336        -0.580227         0.665132
