19
Iteration:  1495charge 0 multiplicity 1
 C        -1.585468        -1.885647        -0.729349
 C        -1.351278        -0.396554        -0.963859
 C        -2.183901         0.440535        -1.972512
 C        -0.595818         0.283478        -2.191167
 C         0.401141         1.349610        -1.516808
 C         0.347748         0.949928        -0.013242
 O        -0.866134         0.175671         0.249501
 C         1.567032         0.237058         0.564092
 O         2.705334         0.319776         0.146237
 H        -2.031660        -1.682606         0.311040
 H        -2.352954        -2.262804        -1.425921
 H        -0.612736        -2.439127        -0.826194
 H        -2.819933         0.041332        -2.708560
 H        -2.398663         1.416460        -1.581908
 H        -0.415109        -0.371156        -3.043013
 H         1.403867         1.246648        -1.885820
 H        -0.094385         2.293629        -1.525610
 H         0.296034         1.796443         0.770543
 H         1.412207        -0.225785         1.641487
