19
Iteration:  3129charge 0 multiplicity 1
 C        -1.337154        -1.894216        -0.596494
 C        -1.293303        -0.368653        -1.000953
 C        -2.089650         0.484003        -1.930188
 C        -0.561824         0.407845        -2.140156
 C         0.431015         1.311555        -1.471609
 C         0.314135         0.931615         0.046540
 O        -1.007699         0.334746         0.234596
 C         1.465321         0.103360         0.523470
 O         2.529884         0.193399        -0.039107
 H        -2.235132        -2.230560        -0.067870
 H        -1.361841        -2.386464        -1.508504
 H        -0.449707        -2.045743        -0.097836
 H        -2.585001        -0.215789        -2.653954
 H        -2.685194         1.405808        -1.659125
 H        -0.261100        -0.326490        -2.901438
 H         1.447374         1.418208        -1.901731
 H        -0.006059         2.373397        -1.464451
 H         0.358133         1.880111         0.720410
 H         1.275864        -0.543903         1.418988
