19
Iteration:  4101
 C        -2.291214        -1.829279        -1.007845
 C        -1.430945        -0.489663        -1.091243
 C        -1.903754         0.671044        -1.909287
 C        -0.564663         0.095086        -2.217845
 C         0.634691         0.772833        -1.631330
 C         0.382825         0.878403        -0.140260
 O        -0.619397        -0.262557         0.180380
 C         1.543528         0.789663         0.851043
 O         2.719662         0.851294         0.557760
 H        -2.072456        -2.533653        -1.864598
 H        -1.825874        -2.375237        -0.255669
 H        -3.236035        -1.671245        -0.729671
 H        -2.727667         0.364658        -2.615097
 H        -1.861892         1.768998        -1.625003
 H        -0.430777        -0.599355        -3.078563
 H         1.537900         0.175959        -1.769476
 H         0.703706         1.789973        -1.904497
 H        -0.294899         1.807298         0.091996
 H         1.179312         0.681089         1.901447
