19
Iteration:  2289
 C        -1.649331        -1.858713        -0.746826
 C        -1.213589        -0.472606        -0.941155
 C        -2.149180         0.464944        -1.848371
 C        -0.602724         0.247547        -2.158390
 C         0.367704         1.431495        -1.597274
 C         0.341271         1.044735        -0.052506
 O        -0.811401         0.202200         0.249498
 C         1.554873         0.163461         0.433072
 O         2.677209         0.300727         0.244415
 H        -2.812189        -2.112674        -0.322022
 H        -1.572707        -2.500594        -1.636677
 H        -0.961137        -2.398244        -0.043041
 H        -2.889773        -0.132851        -2.392635
 H        -2.553974         1.335068        -1.343082
 H        -0.447187        -0.164105        -3.180905
 H         1.387927         1.265125        -1.784398
 H        -0.017200         2.430544        -1.676625
 H         0.051837         2.073641         0.480131
 H         1.188065        -0.607500         1.122770
