19
Iteration:  2726
 C        -1.661186        -1.854937        -0.746116
 C        -1.288456        -0.480386        -1.000550
 C        -2.085403         0.527849        -1.945809
 C        -0.609216         0.229225        -2.141876
 C         0.446046         1.261536        -1.438845
 C         0.282530         0.967136         0.010878
 O        -0.923717         0.224588         0.243475
 C         1.615585         0.257166         0.519640
 O         2.693498         0.376351         0.107805
 H        -2.087762        -1.970682         0.349496
 H        -2.350677        -2.270470        -1.421814
 H        -0.821569        -2.654585        -0.693731
 H        -2.642641        -0.179400        -2.611056
 H        -2.588721         1.471260        -1.668104
 H        -0.304065        -0.208948        -3.131021
 H         1.499565         1.179247        -1.783209
 H        -0.121977         2.216585        -1.662542
 H         0.343547         1.830639         0.730874
 H         1.365961        -0.431254         1.367590
