19
Iteration:  3951
 C        -2.175688        -1.661321        -0.834064
 C        -1.348822        -0.455714        -1.083600
 C        -1.795032         0.672875        -1.924337
 C        -0.627184        -0.092737        -2.312090
 C         0.539558         0.707481        -1.873585
 C         0.320104         0.822876        -0.167285
 O        -0.601281        -0.149819         0.142069
 C         1.633110         0.436728         0.543266
 O         2.546262         1.116091         1.041765
 H        -3.283005        -1.505859        -0.785633
 H        -1.990651        -2.411758        -1.496411
 H        -1.954344        -1.967586         0.218502
 H        -2.820130         0.508823        -2.345431
 H        -1.830393         1.781350        -1.682525
 H        -0.528082        -0.680542        -3.281569
 H         1.425062         0.313296        -2.225070
 H         0.691665         1.683785        -2.251651
 H         0.008508         1.869901         0.263563
 H         1.625367        -0.719293         0.679180
