19
Iteration:  2846
 C        -1.435150        -1.895600        -0.740969
 C        -1.377024        -0.403417        -0.991854
 C        -2.140379         0.453860        -1.862543
 C        -0.613839         0.324522        -2.134982
 C         0.265244         1.365901        -1.588899
 C         0.351719         1.038000        -0.063291
 O        -0.897893         0.284040         0.211913
 C         1.544304         0.222309         0.578571
 O         2.729185         0.133326         0.205209
 H        -2.482417        -2.261643        -0.332100
 H        -1.306468        -2.591966        -1.593525
 H        -0.629342        -2.145062         0.034173
 H        -2.834753        -0.073889        -2.533174
 H        -2.359380         1.512241        -1.599052
 H        -0.330840        -0.319331        -2.949152
 H         1.269092         1.399013        -1.928550
 H        -0.158015         2.300544        -1.798073
 H         0.255465         2.101951         0.439283
 H         1.143440        -0.384736         1.421832
