19
Iteration:  2477
 C        -1.548370        -1.888080        -0.933113
 C        -1.348830        -0.453103        -0.898490
 C        -2.121516         0.608684        -1.698699
 C        -0.695212         0.229879        -2.053429
 C         0.513554         1.082376        -1.595231
 C         0.275966         0.963647        -0.061392
 O        -0.840032         0.253178         0.255222
 C         1.539248         0.283718         0.501142
 O         2.654698         0.406295         0.161679
 H        -2.669221        -2.222102        -0.532106
 H        -1.471245        -2.424326        -1.929559
 H        -0.804507        -2.411531        -0.206425
 H        -2.718789         0.297306        -2.555347
 H        -2.460670         1.554403        -1.328026
 H        -0.592804        -0.186857        -3.032819
 H         1.516258         0.693591        -1.755127
 H         0.490351         2.012831        -2.128961
 H         0.071753         1.981327         0.423585
 H         1.231661        -0.282485         1.438334
