19
Iteration:   892
 C        -1.523759        -1.846868        -0.803619
 C        -1.290807        -0.382241        -1.009621
 C        -2.166099         0.435037        -1.894390
 C        -0.663100         0.315705        -2.176748
 C         0.399666         1.306453        -1.502554
 C         0.320527         1.022608         0.022862
 O        -0.884612         0.217024         0.300638
 C         1.539806         0.327100         0.632246
 O         2.670501         0.169296         0.064101
 H        -2.401930        -1.935582        -0.175075
 H        -1.669220        -2.427470        -1.756678
 H        -0.566055        -2.270546        -0.250161
 H        -2.755249        -0.174662        -2.617900
 H        -2.642076         1.422782        -1.629923
 H        -0.299955        -0.239645        -3.011038
 H         1.286294         0.704985        -1.913316
 H         0.307207         2.327718        -1.835027
 H         0.329749         1.896840         0.609240
 H         1.444195        -0.135054         1.713399
