19
Iteration:  3374charge 0 multiplicity 1
 C        -1.801585        -1.881133        -0.890307
 C        -1.321765        -0.423345        -0.914383
 C        -1.940667         0.527026        -1.883535
 C        -0.504034         0.125435        -2.159979
 C         0.406957         1.155721        -1.629528
 C         0.250997         1.005968        -0.050311
 O        -0.819934         0.136577         0.236350
 C         1.543588         0.290209         0.603390
 O         2.652603         0.542372         0.316674
 H        -2.629310        -1.927403        -1.549835
 H        -0.998052        -2.410740        -1.278528
 H        -1.991486        -2.238904         0.170447
 H        -2.795900         0.098531        -2.416496
 H        -2.193762         1.547009        -1.526621
 H        -0.276782        -0.382359        -3.122589
 H         1.451897         0.787545        -1.850447
 H         0.309224         2.284954        -1.931415
 H         0.080396         1.738886         0.607456
 H         1.128552        -0.469926         1.340579
