19
Iteration:   403charge 0 multiplicity 1
 C        -1.397963        -1.938160        -0.789989
 C        -1.380210        -0.368801        -0.830504
 C        -2.070771         0.556398        -1.941305
 C        -0.585100         0.225413        -1.999814
 C         0.326337         1.336013        -1.625740
 C         0.363102         1.006882        -0.035329
 O        -0.919647         0.379251         0.326791
 C         1.482124         0.097783         0.469568
 O         2.610884         0.220838         0.083458
 H        -2.239047        -2.389198        -0.032297
 H        -1.689930        -2.242226        -1.859551
 H        -0.363916        -2.365206        -0.465037
 H        -2.723780         0.195518        -2.648933
 H        -2.071152         1.498722        -1.613031
 H        -0.231117        -0.622481        -2.579344
 H         1.254532         1.329223        -2.100421
 H        -0.202404         2.282948        -1.644215
 H         0.309605         1.924245         0.562012
 H         1.047376        -0.710223         1.045599
