19
Iteration:  1660
 C        -1.538879        -1.937179        -0.779300
 C        -1.217416        -0.405527        -0.952940
 C        -1.981310         0.374753        -1.829330
 C        -0.533221         0.317563        -2.130089
 C         0.285636         1.463286        -1.520076
 C         0.313400         1.169340        -0.013513
 O        -0.877069         0.253975         0.333723
 C         1.471342         0.194472         0.417542
 O         2.572876         0.121623         0.085906
 H        -2.024748        -1.991080         0.334158
 H        -2.132336        -2.415384        -1.578250
 H        -0.706226        -2.701094        -0.856616
 H        -2.685862        -0.128746        -2.504479
 H        -2.229581         1.388917        -1.487676
 H        -0.157498        -0.437265        -2.792109
 H         1.316273         1.548905        -2.069411
 H        -0.286233         2.435918        -1.742630
 H         0.076494         2.144040         0.566797
 H         1.108148        -0.491714         1.296640
