19
Iteration:  3165charge 0 multiplicity 1
 C        -1.431783        -1.865462        -0.815151
 C        -1.316544        -0.380631        -0.869854
 C        -1.983530         0.446511        -1.917434
 C        -0.497406         0.232100        -2.048672
 C         0.415440         1.311654        -1.483719
 C         0.239671         1.063567         0.074159
 O        -1.013560         0.329410         0.284190
 C         1.483650         0.173988         0.412502
 O         2.579803         0.223946         0.004742
 H        -1.689314        -2.040361         0.225947
 H        -2.262887        -2.204969        -1.297776
 H        -0.686484        -2.573416        -1.127798
 H        -2.586853        -0.203476        -2.548765
 H        -2.431937         1.397705        -1.620369
 H        -0.237937        -0.549848        -2.817187
 H         1.492283         1.296819        -1.700653
 H        -0.080279         2.283552        -1.567458
 H         0.269232         2.083412         0.651406
 H         1.239100        -0.635144         1.142619
