19
Iteration:   231
 C        -1.603919        -1.860281        -0.732692
 C        -1.275124        -0.368648        -0.954140
 C        -2.039289         0.567653        -1.800380
 C        -0.578542         0.270318        -2.130069
 C         0.359543         1.315616        -1.559267
 C         0.331149         1.049103        -0.052963
 O        -0.767031         0.061471         0.261573
 C         1.452938         0.224263         0.541122
 O         2.568949         0.261612         0.086170
 H        -2.231796        -2.001914         0.030270
 H        -1.971224        -2.370793        -1.622414
 H        -0.733696        -2.243992        -0.389309
 H        -2.637081         0.007382        -2.581110
 H        -2.274563         1.636167        -1.593360
 H        -0.315153        -0.311014        -3.035840
 H         1.425316         1.388826        -2.026848
 H        -0.097933         2.299318        -1.711322
 H         0.204417         2.034533         0.443976
 H         1.046525        -0.506437         1.371646
