19
Iteration:  2203charge 0 multiplicity 1
 C        -1.512076        -1.919832        -0.693195
 C        -1.336084        -0.361912        -0.944437
 C        -2.111865         0.482345        -1.901844
 C        -0.622136         0.289385        -2.122587
 C         0.376876         1.281227        -1.511123
 C         0.321886         0.960019         0.058381
 O        -0.958446         0.316297         0.180537
 C         1.501709         0.051066         0.409349
 O         2.724222         0.372393         0.174564
 H        -1.860725        -2.014129         0.311515
 H        -2.095580        -2.370495        -1.468688
 H        -0.461696        -2.341959        -0.827969
 H        -2.679247         0.014295        -2.721867
 H        -2.549313         1.426334        -1.594869
 H        -0.119635        -0.357720        -2.841559
 H         1.419463         1.351902        -1.906079
 H         0.204712         2.400011        -1.407057
 H         0.343130         1.929324         0.730428
 H         1.126372        -0.955091         0.698437
