19
Iteration:  3436
 C        -1.744060        -1.803316        -0.885411
 C        -1.393041        -0.416570        -1.046549
 C        -2.128507         0.555656        -2.006251
 C        -0.569512         0.159857        -2.178789
 C         0.550128         1.059842        -1.586762
 C         0.335204         0.770695        -0.043199
 O        -0.915487         0.112864         0.265948
 C         1.580849         0.348069         0.665815
 O         2.733310         0.648621         0.352625
 H        -2.637799        -1.856147        -0.117483
 H        -2.167176        -2.341230        -1.761870
 H        -0.994311        -2.478454        -0.400455
 H        -2.870193         0.191847        -2.670310
 H        -2.385483         1.444547        -1.479153
 H        -0.178151        -0.362307        -3.007213
 H         1.549769         0.936909        -1.868004
 H         0.359666         2.083406        -1.795344
 H         0.199673         1.732786         0.680214
 H         1.473368        -0.136678         1.686460
