19
Iteration:  3907charge 0 multiplicity 1
 C        -2.198593        -1.714675        -0.769455
 C        -1.332294        -0.417096        -1.072829
 C        -1.922325         0.676400        -1.846791
 C        -0.626659         0.120344        -2.378147
 C         0.726176         0.582894        -1.856797
 C         0.479419         0.742379        -0.288392
 O        -0.655247        -0.169945         0.129366
 C         1.727844         0.380192         0.517848
 O         2.343627         1.225988         1.103795
 H        -2.929850        -1.493651         0.067085
 H        -2.749476        -1.971831        -1.586999
 H        -1.553615        -2.504977        -0.409907
 H        -2.799259         0.348744        -2.456374
 H        -2.216537         1.716888        -1.494601
 H        -0.685053        -0.341944        -3.410223
 H         1.500273        -0.081263        -2.016478
 H         1.047435         1.409971        -2.421985
 H         0.255610         1.800563        -0.141757
 H         1.883124        -0.723385         0.692024
