19
Iteration:  4840charge 0 multiplicity 1
 C        -1.885559        -1.837782        -0.894359
 C        -1.296535        -0.505947        -1.025355
 C        -1.864367         0.430219        -2.049333
 C        -0.367253        -0.050691        -2.174289
 C         0.649034         0.963124        -1.596437
 C         0.252983         0.921281        -0.077319
 O        -0.962281         0.362137         0.128755
 C         1.387275         0.444318         0.773044
 O         2.557508         0.700448         0.582735
 H        -2.918814        -1.931476        -0.724016
 H        -1.559715        -2.411435        -1.899287
 H        -1.243234        -2.475826        -0.317721
 H        -2.520666        -0.035457        -2.813222
 H        -2.150491         1.463624        -1.904610
 H        -0.159925        -0.714983        -2.943225
 H         1.623190         0.464471        -1.810170
 H         0.710529         1.929619        -2.088054
 H         0.264661         1.907182         0.248412
 H         0.923512        -0.069940         1.601776
