19
Iteration:  2174charge 0 multiplicity 1
 C        -1.561961        -1.912048        -0.715907
 C        -1.174749        -0.407484        -0.908031
 C        -2.070258         0.444813        -1.825411
 C        -0.556029         0.266032        -2.146929
 C         0.301584         1.432635        -1.622080
 C         0.307867         1.018561        -0.035552
 O        -0.861049         0.218277         0.269943
 C         1.471594         0.150614         0.399713
 O         2.610174         0.270260         0.208166
 H        -2.058422        -1.849611         0.217196
 H        -2.269631        -1.989873        -1.544610
 H        -0.678034        -2.666118        -0.868606
 H        -2.776188         0.106181        -2.564036
 H        -2.308773         1.461345        -1.532277
 H        -0.045060        -0.333336        -3.025075
 H         1.407249         1.470257        -1.980921
 H        -0.189137         2.384710        -1.417402
 H         0.364980         1.862846         0.543903
 H         0.956311        -0.699032         0.963981
