19
Iteration:    64
 C        -1.834298        -1.861051        -0.946480
 C        -1.512131        -0.360306        -0.978222
 C        -2.177904         0.657270        -1.805438
 C        -0.757929         0.220244        -2.157769
 C         0.465341         0.983496        -1.589065
 C         0.372959         0.903334        -0.036248
 O        -0.627334        -0.082590         0.206988
 C         1.715109         0.485274         0.787842
 O         2.740988         0.506123         0.188375
 H        -2.497363        -2.062146        -0.105196
 H        -2.389019        -2.100150        -1.757706
 H        -0.958217        -2.462389        -0.865243
 H        -3.015731         0.491853        -2.564531
 H        -2.261452         1.753781        -1.548444
 H        -0.643805        -0.428177        -3.007597
 H         1.476120         0.743593        -2.092432
 H         0.425874         2.049082        -1.818782
 H         0.183750         1.907078         0.427898
 H         1.622157         0.467991         1.902633
