19
Iteration:  1197charge 0 multiplicity 1
 C        -1.589904        -1.788802        -0.709483
 C        -1.465256        -0.351951        -0.907482
 C        -2.152855         0.499308        -1.961039
 C        -0.641473         0.300747        -2.134894
 C         0.405318         1.156220        -1.515922
 C         0.322418         0.846377         0.048776
 O        -1.004146         0.235196         0.255551
 C         1.655890         0.042356         0.368091
 O         2.819585         0.563421         0.229212
 H        -2.318548        -2.036591         0.110614
 H        -1.883585        -2.299077        -1.716188
 H        -0.522615        -2.197889        -0.459221
 H        -2.677211         0.055931        -2.821495
 H        -2.602680         1.517876        -1.807384
 H        -0.113821        -0.315142        -2.862550
 H         1.352236         0.768357        -1.962467
 H         0.377911         2.285016        -1.638733
 H         0.352145         1.590342         0.764476
 H         1.578339        -1.101264         0.576084
