19
Iteration:   691
 C        -1.453230        -1.914968        -0.677185
 C        -1.380943        -0.388793        -0.904660
 C        -2.043038         0.462876        -1.974667
 C        -0.521741         0.314850        -2.061933
 C         0.414253         1.351859        -1.487335
 C         0.356887         0.969272         0.050602
 O        -1.042113         0.360943         0.303639
 C         1.534120         0.121768         0.456167
 O         2.583569         0.243053        -0.056854
 H        -2.303661        -2.155419         0.038005
 H        -1.894522        -2.278324        -1.698223
 H        -0.508013        -2.534439        -0.536519
 H        -2.769851        -0.027031        -2.652836
 H        -2.344864         1.454222        -1.597721
 H        -0.083659        -0.374424        -2.752699
 H         1.354961         1.212025        -1.920266
 H         0.297794         2.420833        -1.587219
 H         0.409608         1.736291         0.809713
 H         1.298605        -0.630368         1.320979
