19
Iteration:  4019charge 0 multiplicity 1
 C        -1.908028        -1.817351        -0.911892
 C        -1.466793        -0.396655        -1.105490
 C        -1.949164         0.797569        -1.859721
 C        -0.620363         0.104874        -2.235296
 C         0.670426         0.563149        -1.698528
 C         0.361503         0.704270        -0.156451
 O        -0.834072         0.004052         0.159964
 C         1.631948         0.366608         0.590728
 O         2.569360         1.103450         0.773812
 H        -2.279263        -2.412176        -1.686183
 H        -1.039143        -2.237295        -0.354274
 H        -2.847786        -1.818045        -0.244056
 H        -2.843382         0.679571        -2.426591
 H        -1.971482         1.739925        -1.393661
 H        -0.652372        -0.424960        -3.146591
 H         1.440395        -0.178820        -1.848250
 H         1.231891         1.393811        -2.136952
 H         0.099564         1.834331        -0.011514
 H         1.466877        -0.662387         1.032837
