19
Iteration:  4811charge 0 multiplicity 1
 C        -1.836604        -1.856645        -0.908984
 C        -1.336925        -0.469298        -1.061562
 C        -1.941139         0.476757        -2.138843
 C        -0.443535        -0.038202        -2.134369
 C         0.613989         0.929687        -1.570140
 C         0.263818         1.068810        -0.118410
 O        -0.873851         0.241657         0.154708
 C         1.417835         0.447776         0.761857
 O         2.610373         0.684942         0.642745
 H        -2.925004        -2.071232        -1.239229
 H        -1.334346        -2.613191        -1.434901
 H        -1.807789        -2.185385         0.139364
 H        -2.557768        -0.037467        -2.838979
 H        -2.225821         1.504256        -2.023037
 H        -0.212999        -0.718419        -2.933791
 H         1.600380         0.379295        -1.701355
 H         0.817372         1.798828        -2.165161
 H         0.130728         2.179635         0.178161
 H         0.887553        -0.268036         1.510511
