19
Iteration:   773charge 0 multiplicity 1
 C        -1.439142        -1.839895        -0.682346
 C        -1.274432        -0.410212        -1.021826
 C        -2.172423         0.427787        -1.951119
 C        -0.613601         0.307129        -2.104516
 C         0.414882         1.362029        -1.417440
 C         0.287754         0.931071         0.071637
 O        -1.010186         0.398494         0.194458
 C         1.588007         0.087897         0.563774
 O         2.656632         0.212332        -0.051319
 H        -2.312105        -1.948747        -0.061643
 H        -1.442205        -2.442674        -1.606059
 H        -0.543470        -2.083468        -0.073126
 H        -2.900553        -0.074395        -2.671515
 H        -2.450475         1.423860        -1.568142
 H        -0.300566        -0.403178        -2.865690
 H         1.498121         1.335418        -1.738473
 H        -0.085360         2.210591        -1.508052
 H         0.218701         1.747474         0.861167
 H         1.481241        -0.441504         1.618670
