19
Iteration:  3592charge 0 multiplicity 1
 C        -1.979654        -1.870712        -0.955478
 C        -1.343479        -0.470779        -1.051980
 C        -1.890209         0.696194        -1.804826
 C        -0.546000         0.104635        -2.175887
 C         0.608803         0.916715        -1.675328
 C         0.241118         0.910922        -0.133581
 O        -0.674627        -0.216687         0.238058
 C         1.390257         0.681040         0.701347
 O         2.625109         0.704082         0.457709
 H        -1.635559        -2.392392        -1.944691
 H        -1.716660        -2.285615         0.041025
 H        -3.169050        -1.733101        -1.038919
 H        -2.724919         0.538627        -2.510661
 H        -1.721644         1.712647        -1.316612
 H        -0.286573        -0.253378        -3.192973
 H         1.527984         0.368779        -1.692512
 H         0.814881         1.940181        -2.017180
 H        -0.059076         1.813846         0.250633
 H         1.004324         0.355106         1.637228
