19
Iteration:   844charge 0 multiplicity 1
 C        -1.468700        -1.941301        -0.725270
 C        -1.221932        -0.402876        -0.930417
 C        -2.075684         0.517051        -1.900451
 C        -0.590415         0.277150        -2.162062
 C         0.266632         1.392539        -1.602422
 C         0.285971         1.030189        -0.076745
 O        -0.828002         0.295135         0.258030
 C         1.504081         0.188467         0.522600
 O         2.604275         0.120398         0.179489
 H        -2.084126        -2.069208         0.176450
 H        -2.006945        -2.216615        -1.589759
 H        -0.585655        -2.501514        -0.662780
 H        -2.912148         0.082504        -2.389339
 H        -2.290097         1.476057        -1.492546
 H        -0.285143        -0.362497        -3.039170
 H         1.262032         1.489842        -1.996836
 H        -0.393831         2.364278        -1.422345
 H         0.298782         2.027951         0.489216
 H         1.185108        -0.196020         1.608640
