19
Iteration:  4984charge 0 multiplicity 1
 C        -1.558183        -1.809455        -0.655364
 C        -1.300871        -0.464435        -1.176295
 C        -1.878513         0.395813        -2.298511
 C        -0.327297         0.050222        -2.148887
 C         0.656122         1.018896        -1.554467
 C         0.208895         1.107091        -0.085677
 O        -1.049517         0.317224         0.102495
 C         1.256842         0.462080         0.831681
 O         2.461642         0.403422         0.525469
 H        -0.744419        -2.520314        -0.542386
 H        -2.021534        -1.851023         0.384485
 H        -2.375177        -2.303548        -1.116397
 H        -2.307458        -0.151741        -3.113502
 H        -2.274597         1.363890        -2.053011
 H         0.091065        -0.628347        -2.965247
 H         1.673162         0.508061        -1.532355
 H         0.681334         1.983681        -1.982467
 H         0.018656         2.184204         0.250173
 H         0.972692         0.253566         1.864420
