19
Iteration:  3763
 C        -2.310490        -1.658200        -0.983033
 C        -1.329231        -0.495893        -0.996462
 C        -1.851722         0.745691        -1.764350
 C        -0.628791        -0.052300        -2.231221
 C         0.714002         0.659974        -1.835748
 C         0.417685         0.728518        -0.232793
 O        -0.529412        -0.285863         0.139829
 C         1.599117         0.428124         0.623211
 O         2.413380         1.319463         0.907172
 H        -2.848841        -1.671205         0.011446
 H        -3.027414        -1.492101        -1.881760
 H        -1.858466        -2.618324        -1.146945
 H        -2.711690         0.600640        -2.438450
 H        -1.696663         1.770005        -1.393907
 H        -0.539785        -0.537053        -3.199764
 H         1.665854         0.058128        -2.107343
 H         0.810939         1.639907        -2.318665
 H        -0.040485         1.617573         0.101289
 H         1.790153        -0.679136         0.882861
