19
Iteration:  4231
 C        -1.920960        -1.847826        -0.753052
 C        -1.328518        -0.439201        -1.102896
 C        -1.996042         0.618468        -1.898099
 C        -0.655056         0.082927        -2.309563
 C         0.596629         0.763355        -1.857505
 C         0.364713         0.961931        -0.188452
 O        -0.741051         0.114615         0.053706
 C         1.569695         0.355097         0.694234
 O         2.601209         0.850982         0.920253
 H        -2.929943        -2.064240        -1.361272
 H        -1.088674        -2.609953        -0.910654
 H        -2.281072        -1.827516         0.253848
 H        -2.855675         0.319341        -2.525061
 H        -2.106987         1.642300        -1.512860
 H        -0.734471        -0.558421        -3.146583
 H         1.554355         0.282051        -2.077077
 H         0.700592         1.705013        -2.356512
 H         0.098277         1.900828         0.135241
 H         1.328144        -0.675943         1.108810
