19
Iteration:  3192charge 0 multiplicity 1
 C        -1.555377        -1.884773        -0.779584
 C        -1.194263        -0.406140        -0.914303
 C        -2.021479         0.446345        -2.008669
 C        -0.517805         0.222058        -2.029947
 C         0.246781         1.404484        -1.536692
 C         0.336504         1.075528         0.032369
 O        -0.833963         0.258558         0.294343
 C         1.410492         0.175805         0.472765
 O         2.617252         0.241774         0.110351
 H        -1.442437        -2.425264         0.193846
 H        -2.826237        -1.978306        -0.919009
 H        -1.226431        -2.659999        -1.584129
 H        -2.668896        -0.054690        -2.733211
 H        -2.359450         1.478257        -1.768216
 H        -0.057970        -0.479631        -2.695598
 H         1.271429         1.433935        -1.919395
 H        -0.315803         2.331951        -1.584870
 H         0.454402         1.965935         0.577593
 H         1.189629        -0.530863         1.316402
