19
Iteration:     6
 C        -2.036648        -1.817332        -0.933005
 C        -1.377835        -0.450811        -1.004312
 C        -2.046153         0.770726        -1.604914
 C        -0.725688         0.193527        -2.142169
 C         0.579885         0.901249        -1.665243
 C         0.352925         0.805277        -0.135296
 O        -0.609098        -0.151558         0.166985
 C         1.599755         0.475314         0.668504
 O         2.697879         0.790984         0.291542
 H        -2.699475        -2.065352        -0.073196
 H        -2.564589        -2.070135        -1.905830
 H        -1.241666        -2.610014        -0.938899
 H        -2.946198         0.411894        -2.141790
 H        -1.992310         1.707253        -1.044312
 H        -0.728949        -0.292736        -3.126499
 H         1.322781         0.099302        -1.920505
 H         0.711063         1.994790        -2.047224
 H         0.116684         1.842503         0.369201
 H         1.464966        -0.292830         1.482038
