19
Iteration:  4397charge 0 multiplicity 1
 C        -1.863397        -1.827388        -0.823798
 C        -1.396183        -0.376564        -1.017651
 C        -2.092004         0.597472        -1.877137
 C        -0.753990         0.111250        -2.315867
 C         0.585873         0.628393        -1.827061
 C         0.431252         0.879670        -0.330387
 O        -0.715091         0.176692         0.108823
 C         1.754028         0.360334         0.402854
 O         2.490673         0.925512         1.219529
 H        -2.772287        -1.866518        -1.557527
 H        -1.086747        -2.461822        -1.175099
 H        -2.300830        -1.963870         0.194240
 H        -2.952102         0.400572        -2.510317
 H        -2.192475         1.550037        -1.358870
 H        -0.718279        -0.736505        -3.063229
 H         1.362167        -0.152586        -1.950225
 H         0.992520         1.518442        -2.291400
 H         0.364922         1.921377        -0.171292
 H         1.911689        -0.815256         0.319396
