19
Iteration:  3030
 C        -1.314061        -1.932087        -0.666890
 C        -1.279662        -0.370176        -0.937416
 C        -2.073312         0.540673        -1.991903
 C        -0.548642         0.353759        -2.016202
 C         0.353765         1.311790        -1.469627
 C         0.275557         1.044461         0.043085
 O        -0.950430         0.291793         0.242022
 C         1.483612         0.198535         0.496995
 O         2.468414         0.079177        -0.106557
 H        -2.268505        -2.460112        -0.559699
 H        -0.564606        -2.425672        -1.165616
 H        -0.914437        -1.875794         0.341161
 H        -2.685508         0.185802        -2.901825
 H        -2.585142         1.358021        -1.435313
 H        -0.087875        -0.206497        -2.832688
 H         1.419003         1.021828        -1.670551
 H         0.138800         2.432311        -1.667165
 H         0.148938         1.920512         0.846562
 H         1.336135        -0.169922         1.555522
