19
Iteration:   945
 C        -1.583634        -1.904907        -0.831979
 C        -1.279310        -0.449805        -0.897315
 C        -1.994228         0.542734        -1.823839
 C        -0.537389         0.249630        -2.134046
 C         0.482742         1.164393        -1.507515
 C         0.239620         1.084115        -0.014195
 O        -0.872143         0.199510         0.339825
 C         1.445861         0.307539         0.568477
 O         2.573173         0.297612        -0.003656
 H        -2.462082        -2.039208        -0.279143
 H        -1.931994        -2.172443        -1.788012
 H        -0.689507        -2.479494        -0.521389
 H        -2.815081         0.179698        -2.475149
 H        -2.379336         1.442430        -1.304208
 H        -0.261862        -0.350844        -2.962728
 H         1.523807         1.063666        -1.972046
 H         0.184541         2.242002        -1.928246
 H         0.117410         2.158296         0.409035
 H         1.218129        -0.439860         1.319604
