19
Iteration:   864charge 0 multiplicity 1
 C        -1.580132        -1.893749        -0.748204
 C        -1.293717        -0.455944        -1.048711
 C        -2.148744         0.347032        -1.882818
 C        -0.684111         0.364271        -2.116462
 C         0.343041         1.426298        -1.511709
 C         0.393026         1.037279        -0.019114
 O        -0.894539         0.287707         0.168060
 C         1.629793         0.303591         0.607487
 O         2.694919         0.088987         0.172971
 H        -2.184373        -1.921881         0.179780
 H        -2.020223        -2.489288        -1.567218
 H        -0.685947        -2.341722        -0.475068
 H        -2.621030        -0.104193        -2.742385
 H        -2.652348         1.233307        -1.489794
 H        -0.303160        -0.050509        -3.080749
 H         1.188040         1.236012        -2.089670
 H        -0.117238         2.463570        -1.609252
 H         0.330424         2.009769         0.651521
 H         1.357340        -0.128834         1.586159
