19
Iteration:  3145charge 0 multiplicity 1
 C        -1.378058        -1.878328        -0.722717
 C        -1.310387        -0.414294        -0.917510
 C        -2.064611         0.427949        -1.972725
 C        -0.553648         0.290050        -2.091773
 C         0.416814         1.340215        -1.393645
 C         0.283246         0.971819         0.075153
 O        -0.992613         0.419577         0.238214
 C         1.502281         0.083660         0.505157
 O         2.516382         0.251816        -0.061298
 H        -1.960086        -2.063285         0.206899
 H        -1.913665        -2.619543        -1.481725
 H        -0.307408        -2.300300        -0.519051
 H        -2.720502         0.114935        -2.763308
 H        -2.395076         1.330630        -1.527542
 H        -0.111880        -0.082824        -3.023143
 H         1.368721         0.923425        -1.695100
 H         0.280317         2.333970        -1.744818
 H         0.300867         1.860417         0.734131
 H         1.322998        -0.602412         1.381309
