19
Iteration:  1160
 C        -1.647511        -1.855883        -0.766017
 C        -1.289579        -0.392362        -0.884305
 C        -2.026592         0.492644        -1.830906
 C        -0.579466         0.224031        -2.094554
 C         0.306996         1.266054        -1.576458
 C         0.372178         0.898703        -0.030167
 O        -0.852598         0.270887         0.198000
 C         1.490754         0.061705         0.334892
 O         2.665750         0.494861         0.272470
 H        -2.156686        -2.078162         0.263305
 H        -2.347200        -2.164522        -1.507364
 H        -0.749764        -2.501238        -0.753368
 H        -2.846438         0.182321        -2.506644
 H        -2.003705         1.498500        -1.435025
 H        -0.255430        -0.353907        -2.965899
 H         1.286000         1.252881        -1.863223
 H        -0.057244         2.188933        -1.782450
 H         0.295027         1.834339         0.632682
 H         1.309963        -0.958282         0.751754
