19
Iteration:  1829
 C        -1.407631        -1.862165        -0.782907
 C        -1.367083        -0.388466        -0.941162
 C        -2.069727         0.476989        -1.916330
 C        -0.517173         0.214906        -2.051931
 C         0.418464         1.295681        -1.444471
 C         0.241249         1.010202         0.059838
 O        -1.028603         0.350773         0.273091
 C         1.526867         0.159157         0.516164
 O         2.584958         0.234404        -0.072060
 H        -1.714739        -2.147485         0.302562
 H        -1.943276        -2.428826        -1.591080
 H        -0.334754        -2.195866        -0.794722
 H        -2.545265         0.009441        -2.758435
 H        -2.552191         1.404201        -1.611872
 H        -0.077712        -0.438644        -2.796086
 H         1.424955         1.162603        -1.674407
 H         0.252785         2.302565        -1.695204
 H         0.381209         1.983363         0.784920
 H         1.298160        -0.403425         1.528488
