19
Iteration:  2674
 C        -1.584758        -1.825447        -0.815572
 C        -1.332805        -0.371819        -0.898113
 C        -2.158303         0.460402        -1.782177
 C        -0.685983         0.257286        -2.153704
 C         0.306959         1.286054        -1.678595
 C         0.329907         1.036456        -0.105729
 O        -0.781870         0.192499         0.206274
 C         1.551407         0.215038         0.501271
 O         2.761226         0.300224         0.354080
 H        -2.489001        -2.209605        -0.368705
 H        -1.415366        -2.310705        -1.762628
 H        -0.828466        -2.266130        -0.285876
 H        -3.003598         0.061313        -2.422919
 H        -2.360705         1.485778        -1.394033
 H        -0.474535        -0.493574        -2.944368
 H         1.312534         0.927385        -2.048104
 H        -0.071438         2.390821        -1.871202
 H         0.406037         1.970459         0.425985
 H         1.148316        -0.647541         1.092954
