19
Iteration:   397
 C        -1.450619        -1.907122        -0.755976
 C        -1.371717        -0.334760        -0.864048
 C        -2.079130         0.508458        -1.939791
 C        -0.562331         0.238826        -2.031445
 C         0.300972         1.321177        -1.564519
 C         0.328814         1.028910        -0.042847
 O        -0.937885         0.363976         0.311225
 C         1.481356         0.106535         0.433975
 O         2.676807         0.197478         0.104223
 H        -1.928715        -2.524373        -0.100350
 H        -1.700845        -2.238095        -1.752494
 H        -0.471816        -2.195621        -0.537288
 H        -2.803167         0.067748        -2.742648
 H        -2.393975         1.624326        -1.520626
 H        -0.158854        -0.554551        -2.662331
 H         1.421667         1.322365        -2.037922
 H        -0.251385         2.278359        -1.726917
 H         0.461232         1.935406         0.601886
 H         1.233624        -0.755045         1.198424
