19
Iteration:  4955
 C        -1.635790        -1.805765        -0.791934
 C        -1.348794        -0.348985        -1.087748
 C        -1.871894         0.362668        -2.239259
 C        -0.380136        -0.055020        -2.179139
 C         0.570015         0.988207        -1.645403
 C         0.283787         1.143736        -0.063094
 O        -0.971646         0.311949         0.133052
 C         1.315798         0.448516         0.872741
 O         2.474900         0.447607         0.597602
 H        -0.842571        -2.259204        -0.070757
 H        -2.518007        -2.063626        -0.287497
 H        -1.675220        -2.333297        -1.820510
 H        -2.414896        -0.390081        -2.857988
 H        -2.196772         1.413751        -2.250260
 H         0.054838        -0.845892        -2.832481
 H         1.621526         0.708196        -1.799378
 H         0.556209         1.990139        -2.198314
 H         0.138199         2.130626         0.295952
 H         1.021591         0.190179         1.936839
