19
Iteration:  4111charge 0 multiplicity 1
 C        -2.160601        -1.720900        -0.969559
 C        -1.406748        -0.470369        -1.055690
 C        -1.899314         0.686155        -1.955363
 C        -0.544970         0.033321        -2.219124
 C         0.645363         0.724947        -1.578516
 C         0.261595         0.835094        -0.108077
 O        -0.641275        -0.315461         0.195314
 C         1.510541         0.830220         0.802751
 O         2.695014         0.829389         0.510232
 H        -2.192324        -2.131480        -2.008859
 H        -1.712485        -2.319390        -0.198920
 H        -3.157060        -1.625166        -0.778127
 H        -2.702046         0.413619        -2.688633
 H        -1.992160         1.706721        -1.479981
 H        -0.421310        -0.325522        -3.273583
 H         1.623352         0.279743        -1.798668
 H         0.778517         1.717760        -2.004175
 H        -0.215231         1.894207         0.289449
 H         1.278785         0.623442         1.856754
