19
Iteration:  1249charge 0 multiplicity 1
 C        -1.634726        -1.889145        -0.833107
 C        -1.250845        -0.438631        -0.871218
 C        -2.076480         0.533769        -1.796951
 C        -0.660911         0.181626        -2.136681
 C         0.315503         1.318178        -1.662939
 C         0.300985         1.034319        -0.174022
 O        -0.725411         0.187425         0.287925
 C         1.476489         0.188348         0.389929
 O         2.712279         0.352865         0.348379
 H        -2.668217        -1.902351        -0.357705
 H        -1.780558        -2.292371        -1.814513
 H        -0.927252        -2.419710        -0.159341
 H        -3.018399         0.104234        -2.236061
 H        -2.334444         1.510605        -1.254267
 H        -0.337619        -0.272700        -3.103556
 H         1.315894         1.354035        -1.855802
 H        -0.056920         2.236400        -1.898388
 H         0.342386         1.956971         0.598896
 H         1.050246        -0.578733         1.111915
