19
Iteration:  2803
 C        -1.635757        -1.904826        -0.709233
 C        -1.271444        -0.429128        -0.958336
 C        -2.126825         0.441078        -1.877613
 C        -0.509310         0.296519        -2.133939
 C         0.391934         1.378260        -1.538750
 C         0.320922         1.013362        -0.005969
 O        -0.859337         0.207209         0.235444
 C         1.541256         0.245475         0.500319
 O         2.642127         0.263230         0.121727
 H        -2.717629        -1.966011        -0.280003
 H        -1.781201        -2.490381        -1.635772
 H        -0.916197        -2.474237        -0.049435
 H        -2.579737        -0.244457        -2.605425
 H        -2.689466         1.344640        -1.533964
 H        -0.125185        -0.087531        -3.081281
 H         1.266115         1.402076        -2.130427
 H         0.061850         2.367171        -1.685406
 H         0.205216         1.929947         0.722901
 H         1.231805        -0.313961         1.433514
