19
Iteration:  1427charge 0 multiplicity 1
 C        -1.614462        -1.841187        -0.850193
 C        -1.324855        -0.428039        -0.941498
 C        -2.099086         0.549020        -1.862851
 C        -0.670912         0.177650        -2.129056
 C         0.390851         1.174670        -1.523754
 C         0.324431         0.986321         0.014006
 O        -0.824552         0.204051         0.269777
 C         1.518200         0.285162         0.602686
 O         2.716565         0.370275         0.094166
 H        -2.512941        -2.014943        -0.407276
 H        -1.503135        -2.315807        -1.890874
 H        -0.700332        -2.347558        -0.379249
 H        -2.719986         0.105618        -2.628284
 H        -2.342421         1.513763        -1.460689
 H        -0.598847        -0.420268        -3.068808
 H         1.348102         0.972835        -1.821540
 H         0.052799         2.129537        -1.785588
 H         0.230761         1.968356         0.520851
 H         1.191509        -0.139145         1.577080
