19
Iteration:   546charge 0 multiplicity 1
 C        -1.483147        -1.827495        -0.736711
 C        -1.229429        -0.471393        -0.926964
 C        -2.042582         0.526195        -1.857954
 C        -0.636999         0.316273        -2.180198
 C         0.453064         1.236662        -1.417716
 C         0.252778         0.975810         0.007379
 O        -0.963365         0.240383         0.251326
 C         1.512747         0.297727         0.562423
 O         2.586134         0.206373        -0.056395
 H        -2.293706        -1.817712         0.093973
 H        -2.070710        -2.369659        -1.605481
 H        -0.537470        -2.389725        -0.502472
 H        -2.742951         0.090384        -2.514052
 H        -2.262868         1.413239        -1.290146
 H        -0.304817        -0.223364        -3.078869
 H         1.391743         0.930482        -1.745185
 H         0.326247         2.282100        -1.715910
 H         0.202112         1.966036         0.458154
 H         1.409900        -0.193964         1.559213
