19
Iteration:  4023
 C        -1.922102        -1.813708        -0.910592
 C        -1.489211        -0.384391        -1.124937
 C        -1.939711         0.798745        -1.850598
 C        -0.621800         0.102024        -2.204889
 C         0.635195         0.551564        -1.690150
 C         0.357347         0.741858        -0.183760
 O        -0.780395        -0.003853         0.141132
 C         1.603761         0.372425         0.629719
 O         2.566858         1.089549         0.756645
 H        -2.135869        -2.594777        -1.702353
 H        -1.036126        -2.156449        -0.294771
 H        -2.771920        -1.847187        -0.298757
 H        -2.840304         0.714190        -2.471586
 H        -1.995621         1.809164        -1.403009
 H        -0.607037        -0.460767        -3.157414
 H         1.468411        -0.182381        -1.817725
 H         1.226804         1.400444        -2.111830
 H         0.144494         1.718717         0.080294
 H         1.484692        -0.689656         1.039494
