19
Iteration:  4528charge 0 multiplicity 1
 C        -2.266989        -1.794089        -1.062919
 C        -1.436831        -0.448468        -1.050886
 C        -1.900424         0.869374        -1.792105
 C        -0.678302        -0.046454        -2.275938
 C         0.624567         0.595309        -1.731044
 C         0.425117         0.684589        -0.165524
 O        -0.655826        -0.256545         0.172820
 C         1.793469         0.410279         0.615713
 O         2.527649         1.368537         0.883033
 H        -3.338171        -1.437635        -1.133169
 H        -1.952866        -2.409312        -1.863401
 H        -2.018539        -2.490927        -0.223194
 H        -2.694955         0.757972        -2.505999
 H        -1.671558         1.788520        -1.261794
 H        -0.863362        -0.599127        -3.247344
 H         1.608783         0.025306        -1.838140
 H         0.806172         1.585611        -2.147792
 H         0.161834         1.845303         0.054204
 H         2.294395        -0.604307         1.039038
