19
Iteration:  3620
 C        -2.075610        -1.823536        -0.874223
 C        -1.333161        -0.469707        -1.117649
 C        -2.040746         0.652514        -1.848684
 C        -0.627730         0.113296        -2.325201
 C         0.579953         0.850488        -1.621993
 C         0.367666         0.837770        -0.102981
 O        -0.535943        -0.215868         0.013412
 C         1.488387         0.680641         0.888368
 O         2.627504         0.786652         0.576330
 H        -2.421998        -2.030740        -1.860097
 H        -1.556940        -2.521136        -0.264914
 H        -2.958087        -1.506524        -0.434896
 H        -2.864473         0.238270        -2.392677
 H        -2.016628         1.632678        -1.476064
 H        -0.372362        -0.307114        -3.310309
 H         1.665453         0.536708        -1.782970
 H         0.646518         1.932555        -1.930176
 H         0.077381         1.932258         0.320952
 H         1.050148         0.342046         1.916853
