19
Iteration:  2617charge 0 multiplicity 1
 C        -1.510603        -1.853610        -0.780971
 C        -1.327065        -0.349664        -1.012685
 C        -2.233141         0.585577        -1.800808
 C        -0.656264         0.260611        -2.154072
 C         0.526456         1.084849        -1.522548
 C         0.308096         0.851360        -0.008344
 O        -0.943027         0.229556         0.273948
 C         1.552980         0.097636         0.470921
 O         2.673827         0.538022         0.182505
 H        -2.379819        -1.939916        -0.088369
 H        -1.768490        -2.336865        -1.618062
 H        -0.644858        -2.205437        -0.374215
 H        -2.921067         0.240764        -2.579277
 H        -2.486956         1.576892        -1.395349
 H        -0.427757        -0.239752        -3.098945
 H         1.543289         0.861017        -1.893870
 H         0.478100         2.190324        -1.939172
 H         0.502400         1.741269         0.476121
 H         1.485589        -0.800394         1.102578
