19
Iteration:   749charge 0 multiplicity 1
 C        -1.505690        -1.861476        -0.660738
 C        -1.314801        -0.391960        -0.949484
 C        -2.012327         0.508023        -2.015395
 C        -0.538137         0.320733        -2.050059
 C         0.203383         1.426296        -1.484499
 C         0.276547         1.049170        -0.040795
 O        -0.867922         0.238372         0.334852
 C         1.552547         0.104603         0.438525
 O         2.640753         0.135519         0.040134
 H        -2.455452        -2.066643        -0.124792
 H        -1.401705        -2.394445        -1.581602
 H        -0.606694        -2.148976         0.056384
 H        -2.571805        -0.183285        -2.608026
 H        -2.538743         1.404116        -1.743768
 H        -0.095797        -0.095943        -2.990871
 H         1.242765         1.370888        -1.924786
 H        -0.283652         2.276650        -1.637343
 H         0.244633         1.980060         0.525112
 H         1.167039        -0.508789         1.365431
