19
Iteration:  4596charge 0 multiplicity 1
 C        -2.228664        -1.821253        -0.988106
 C        -1.426026        -0.499914        -1.097508
 C        -1.900064         0.819091        -1.774208
 C        -0.664936         0.128427        -2.307146
 C         0.706192         0.549478        -1.688965
 C         0.465555         0.704979        -0.194604
 O        -0.663864        -0.296119         0.112412
 C         1.635993         0.563566         0.760247
 O         2.588212         1.269585         0.762252
 H        -2.766185        -1.718886        -0.120581
 H        -2.902375        -1.824509        -1.792070
 H        -1.504926        -2.666652        -1.102809
 H        -2.702704         0.568818        -2.464793
 H        -1.980329         1.826869        -1.407668
 H        -0.738037        -0.356090        -3.236728
 H         1.429704        -0.264076        -1.778596
 H         1.112994         1.510179        -2.137130
 H        -0.099920         1.640764         0.132152
 H         1.322786        -0.127521         1.602209
