19
Iteration:  3275
 C        -1.478305        -1.897284        -0.880086
 C        -1.254628        -0.426495        -0.942488
 C        -2.010110         0.585612        -1.884209
 C        -0.584546         0.178928        -2.087882
 C         0.441886         1.116503        -1.624008
 C         0.293556         0.977290         0.025714
 O        -0.963122         0.263391         0.318291
 C         1.429344         0.308646         0.550601
 O         2.579623         0.381955         0.207552
 H        -0.762104        -2.383299        -1.555029
 H        -1.414093        -2.204833         0.065413
 H        -2.518199        -2.055007        -1.248189
 H        -2.811176         0.113620        -2.413555
 H        -2.283702         1.525847        -1.459688
 H        -0.341489        -0.431010        -2.926111
 H         1.458735         0.793641        -1.929022
 H         0.370434         2.189988        -1.999541
 H         0.368469         2.083488         0.300115
 H         1.021826        -0.587639         1.058982
