19
Iteration:  2693charge 0 multiplicity 1
 C        -1.639425        -1.886896        -0.743478
 C        -1.252463        -0.457558        -1.003680
 C        -2.123380         0.528424        -1.840819
 C        -0.703676         0.232282        -2.187022
 C         0.313120         1.342546        -1.589312
 C         0.406906         1.030281        -0.113051
 O        -0.737139         0.175344         0.241652
 C         1.508647         0.218732         0.511699
 O         2.708593         0.304013         0.314488
 H        -2.538866        -1.801774         0.016783
 H        -1.954488        -2.416099        -1.610185
 H        -0.749004        -2.398408        -0.262871
 H        -2.859409        -0.061481        -2.422073
 H        -2.561916         1.464968        -1.485103
 H        -0.330275        -0.183085        -3.143530
 H         1.273920         1.421487        -2.160386
 H        -0.291373         2.285172        -1.824998
 H         0.282115         1.893889         0.508682
 H         1.085841        -0.486597         1.265443
