19
Iteration:  3971
 C        -2.168359        -1.749847        -0.938471
 C        -1.423843        -0.429299        -0.986475
 C        -1.977992         0.655241        -1.950302
 C        -0.597771        -0.044230        -2.208291
 C         0.665898         0.685796        -1.751594
 C         0.420911         0.887546        -0.251896
 O        -0.671930        -0.097194         0.179662
 C         1.662472         0.412520         0.523587
 O         2.578478         1.114458         0.966720
 H        -3.252601        -1.557837        -1.329572
 H        -1.654251        -2.483014        -1.536794
 H        -2.366253        -2.184163         0.025647
 H        -2.891153         0.392331        -2.578125
 H        -1.924834         1.791357        -1.705239
 H        -0.518330        -0.830747        -3.015349
 H         1.640612         0.162902        -1.876744
 H         0.817925         1.700424        -2.145283
 H         0.056288         1.917935         0.195825
 H         1.626378        -0.698003         0.601461
