19
Iteration:  2552charge 0 multiplicity 1
 C        -1.873114        -1.875538        -0.854283
 C        -1.233803        -0.490438        -1.006022
 C        -2.071198         0.462384        -1.828925
 C        -0.577980         0.214458        -2.133106
 C         0.249087         1.313653        -1.550886
 C         0.369158         1.003569        -0.049100
 O        -0.776327         0.186405         0.279119
 C         1.653255         0.187392         0.592626
 O         2.748436         0.444743         0.192153
 H        -2.276025        -2.035272         0.181579
 H        -2.629712        -2.044001        -1.486136
 H        -1.220996        -2.610695        -1.076505
 H        -2.689541        -0.119269        -2.487404
 H        -2.505751         1.445290        -1.780914
 H        -0.236724        -0.166357        -3.085288
 H         1.293310         1.279154        -1.885186
 H        -0.021405         2.365877        -1.893608
 H         0.259205         1.897055         0.632292
 H         1.306175        -0.411301         1.489889
