19
Iteration:  2765
 C        -1.609149        -1.864845        -0.864079
 C        -1.311205        -0.323437        -0.869659
 C        -1.963572         0.559248        -1.923883
 C        -0.481099         0.066965        -2.001205
 C         0.439806         1.176502        -1.501728
 C         0.299169         0.954995         0.062681
 O        -0.964853         0.252212         0.360449
 C         1.511435         0.227942         0.445899
 O         2.554822         0.420059        -0.024707
 H        -2.080288        -2.196370         0.007558
 H        -2.102003        -2.134833        -1.831542
 H        -0.606860        -2.363058        -0.899733
 H        -2.669773         0.032485        -2.545489
 H        -2.267018         1.571466        -1.761125
 H        -0.338080        -0.603053        -2.858994
 H         1.559192         1.134896        -1.661133
 H        -0.049359         2.178286        -1.739085
 H         0.136767         1.937456         0.564986
 H         1.353072        -0.393758         1.366832
