19
Iteration:  2556
 C        -1.857289        -1.829442        -0.853966
 C        -1.249375        -0.501117        -0.983071
 C        -2.028658         0.450109        -1.819885
 C        -0.587000         0.227953        -2.140317
 C         0.227931         1.309366        -1.550519
 C         0.384913         0.999984        -0.055029
 O        -0.780032         0.186237         0.274405
 C         1.660835         0.199093         0.569278
 O         2.731464         0.437164         0.209183
 H        -2.237762        -1.994973         0.206689
 H        -2.779627        -2.040914        -1.640143
 H        -1.156396        -2.790200        -1.146801
 H        -2.695712        -0.184348        -2.433120
 H        -2.491824         1.460808        -1.695347
 H        -0.095060        -0.105587        -3.073974
 H         1.278259         1.183256        -1.905361
 H        -0.205330         2.206828        -1.922494
 H         0.265067         1.937536         0.621838
 H         1.296696        -0.431151         1.447346
