19
Iteration:  1076
 C        -1.454884        -1.916917        -0.735714
 C        -1.402778        -0.356256        -0.938875
 C        -2.146026         0.661136        -1.845002
 C        -0.653183         0.248282        -2.116683
 C         0.372432         1.140103        -1.535472
 C         0.335407         0.845154        -0.062368
 O        -0.963909         0.311590         0.174198
 C         1.597732         0.064863         0.514656
 O         2.701185         0.468360         0.180739
 H        -2.231578        -2.299631        -0.056177
 H        -1.390043        -2.385774        -1.695313
 H        -0.512219        -2.249307        -0.173429
 H        -2.856225         0.227877        -2.609953
 H        -2.466927         1.622577        -1.368378
 H        -0.501542        -0.295770        -3.071101
 H         1.451989         0.820377        -1.785067
 H         0.112269         2.248380        -1.920701
 H         0.411010         1.802739         0.560451
 H         1.401001        -0.714432         1.261400
