19
Iteration:  2625charge 0 multiplicity 1
 C        -1.498663        -1.846978        -0.834154
 C        -1.386787        -0.330528        -0.981813
 C        -2.216037         0.555995        -1.771542
 C        -0.614842         0.266309        -2.097971
 C         0.496472         1.089280        -1.589878
 C         0.350835         0.878214        -0.002654
 O        -0.961193         0.278181         0.211092
 C         1.567759         0.043525         0.489021
 O         2.677093         0.546369         0.189052
 H        -2.408637        -1.964012        -0.214759
 H        -1.632740        -2.559748        -1.703546
 H        -0.607218        -2.338624        -0.212876
 H        -3.012940         0.151035        -2.345901
 H        -2.497994         1.485865        -1.317630
 H        -0.546635        -0.157752        -3.078894
 H         1.423904         0.618031        -1.930208
 H         0.542656         2.175567        -1.786340
 H         0.443164         1.800118         0.599587
 H         1.457234        -0.777374         1.243254
