19
Iteration:  3101
 C        -1.360756        -1.913530        -0.714310
 C        -1.296671        -0.389558        -0.978196
 C        -2.066570         0.409921        -1.899458
 C        -0.583597         0.335773        -2.125313
 C         0.232294         1.441754        -1.496277
 C         0.296973         1.156400         0.019881
 O        -0.908132         0.379109         0.287057
 C         1.467214         0.129812         0.443657
 O         2.638836         0.009025         0.076307
 H        -2.393056        -2.387147        -0.770438
 H        -0.901060        -2.497053        -1.691516
 H        -0.746321        -2.003538         0.263734
 H        -2.757234        -0.194569        -2.425568
 H        -2.483517         1.358965        -1.596764
 H        -0.187151        -0.462565        -2.802262
 H         1.252016         1.446692        -1.885921
 H        -0.172430         2.417204        -1.680319
 H         0.388012         2.004374         0.649423
 H         1.043923        -0.455726         1.311739
