19
Iteration:   153charge 0 multiplicity 1
 C        -1.552100        -1.803295        -0.877320
 C        -1.361500        -0.383749        -0.993901
 C        -2.085867         0.649978        -1.775756
 C        -0.686098         0.263328        -2.168958
 C         0.430847         1.061005        -1.563196
 C         0.254381         1.010613         0.026551
 O        -0.826274         0.040562         0.263778
 C         1.602583         0.455863         0.660154
 O         2.650129         0.267443         0.070192
 H        -2.210249        -2.030654        -0.114536
 H        -1.969840        -2.245944        -1.709132
 H        -0.681626        -2.313824        -0.658148
 H        -2.956676         0.204773        -2.202714
 H        -2.352553         1.522863        -1.243142
 H        -0.501666        -0.219021        -3.144217
 H         1.423019         0.555260        -1.860636
 H         0.471867         2.093078        -1.945778
 H        -0.077559         1.992539         0.417252
 H         1.452271        -0.051627         1.613489
