19
Iteration:  1417charge 0 multiplicity 1
 C        -1.643715        -1.867060        -0.807591
 C        -1.319546        -0.375890        -0.980488
 C        -2.186655         0.508126        -1.937803
 C        -0.645721         0.268145        -2.150732
 C         0.373950         1.191215        -1.515488
 C         0.343920         0.940040        -0.028100
 O        -0.839369         0.156657         0.254526
 C         1.635400         0.370509         0.601695
 O         2.728066         0.329825         0.152809
 H        -2.576460        -2.117932        -0.367701
 H        -1.674944        -2.333436        -1.859185
 H        -0.902050        -2.273169        -0.045329
 H        -2.998801         0.114529        -2.498630
 H        -2.502562         1.350251        -1.380478
 H        -0.255974        -0.432264        -2.924013
 H         1.345958         1.119540        -1.882073
 H         0.086100         2.186437        -1.737937
 H         0.151354         1.879862         0.651814
 H         1.426722        -0.213852         1.533807
