19
Iteration:  4038
 C        -1.941546        -1.827877        -0.846842
 C        -1.452459        -0.410493        -1.028949
 C        -1.976413         0.827397        -1.886702
 C        -0.702500         0.085568        -2.253229
 C         0.685620         0.591428        -1.651978
 C         0.388890         0.888253        -0.160057
 O        -0.649808        -0.090465         0.068513
 C         1.529141         0.395682         0.713762
 O         2.533544         1.015761         0.708734
 H        -1.779767        -2.233967        -1.910877
 H        -1.309261        -2.303766        -0.171380
 H        -3.070490        -2.072188        -0.594864
 H        -2.727739         0.764980        -2.724524
 H        -1.861670         1.795918        -1.327334
 H        -0.698157        -0.483361        -3.198014
 H         1.411936        -0.259696        -1.778673
 H         0.996368         1.439302        -2.260138
 H         0.154419         2.035385        -0.111434
 H         1.382997        -0.587273         1.216851
