19
Iteration:   719charge 0 multiplicity 1
 C        -1.583086        -1.848110        -0.799447
 C        -1.209484        -0.419826        -0.930595
 C        -2.012392         0.323997        -1.830837
 C        -0.455136         0.237245        -2.030391
 C         0.270351         1.368506        -1.432674
 C         0.365065         1.152860        -0.000282
 O        -0.899775         0.366084         0.275585
 C         1.416045         0.152348         0.406142
 O         2.613536         0.153805         0.010799
 H        -2.486517        -1.925109        -0.241856
 H        -1.747360        -2.097299        -1.838558
 H        -0.821488        -2.484074        -0.446590
 H        -2.882819        -0.261116        -2.235772
 H        -2.420182         1.257799        -1.431088
 H         0.076551        -0.246379        -2.865118
 H         1.282043         1.479882        -1.981616
 H        -0.240713         2.429459        -1.556672
 H         0.318224         2.089886         0.669345
 H         1.013276        -0.682287         0.949821
