19
Iteration:  2737
 C        -1.673510        -1.914189        -0.784452
 C        -1.304211        -0.362518        -0.974872
 C        -2.055099         0.480316        -1.997618
 C        -0.539653         0.234866        -2.074918
 C         0.383739         1.188240        -1.452188
 C         0.339000         0.966459         0.100862
 O        -0.934168         0.237997         0.276762
 C         1.536419         0.224447         0.534454
 O         2.682775         0.421347         0.016718
 H        -2.087622        -1.996033         0.312033
 H        -2.407157        -2.286846        -1.452264
 H        -0.662132        -2.413100        -0.924436
 H        -2.757222        -0.029494        -2.711615
 H        -2.412550         1.446657        -1.595932
 H        -0.297188        -0.441118        -2.929697
 H         1.451426         1.069754        -1.756428
 H         0.321605         2.267299        -1.664509
 H         0.226007         1.972151         0.600686
 H         1.410102        -0.461866         1.396644
