19
Iteration:  4011charge 0 multiplicity 1
 C        -1.940791        -1.806701        -0.885735
 C        -1.400507        -0.421402        -1.050005
 C        -1.977205         0.774276        -1.879203
 C        -0.653317         0.117688        -2.305910
 C         0.761494         0.570390        -1.699372
 C         0.365340         0.728440        -0.142787
 O        -0.915223         0.010422         0.188825
 C         1.646771         0.342695         0.550140
 O         2.575599         1.128730         0.802194
 H        -2.351514        -2.040440        -1.870712
 H        -1.169630        -2.629885        -0.579430
 H        -2.669458        -1.777836        -0.119508
 H        -2.789439         0.580534        -2.549079
 H        -1.882785         1.655498        -1.283663
 H        -0.678992        -0.461407        -3.223586
 H         1.352842        -0.325702        -1.888330
 H         1.041170         1.572077        -2.108786
 H         0.238041         1.742147        -0.080313
 H         1.724000        -0.699904         1.011152
