19
Iteration:  3977
 C        -2.173624        -1.769801        -0.956920
 C        -1.441960        -0.411471        -1.014616
 C        -1.984168         0.655668        -1.931077
 C        -0.619259        -0.060937        -2.173687
 C         0.689374         0.681050        -1.678924
 C         0.435738         0.891026        -0.226603
 O        -0.682184        -0.056747         0.152421
 C         1.685104         0.404104         0.471936
 O         2.555550         1.117207         0.946575
 H        -3.102834        -1.706401        -1.470319
 H        -1.625477        -2.575583        -1.590950
 H        -2.384978        -2.110822         0.076999
 H        -2.862843         0.403029        -2.458859
 H        -2.090548         1.659802        -1.706605
 H        -0.469410        -0.716223        -2.982474
 H         1.652151         0.125313        -1.928598
 H         0.984532         1.650820        -2.176787
 H         0.261644         1.815853         0.187159
 H         1.580435        -0.685603         0.800295
