19
Iteration:   395charge 0 multiplicity 1
 C        -1.461786        -1.884239        -0.747278
 C        -1.368194        -0.326164        -0.875431
 C        -2.084393         0.497598        -1.936512
 C        -0.565441         0.231083        -2.045982
 C         0.298186         1.319437        -1.536774
 C         0.319366         1.033820        -0.039591
 O        -0.942630         0.360887         0.304305
 C         1.488939         0.105955         0.421424
 O         2.691178         0.190934         0.111561
 H        -1.936333        -2.555576        -0.042844
 H        -1.714084        -2.280236        -1.793900
 H        -0.428570        -2.157908        -0.580513
 H        -2.773069         0.060790        -2.688504
 H        -2.470395         1.516454        -1.562922
 H        -0.148820        -0.495301        -2.721345
 H         1.420771         1.333043        -1.995340
 H        -0.220709         2.293482        -1.767431
 H         0.495740         1.930389         0.597867
 H         1.276694        -0.716008         1.214343
