19
Iteration:  3532charge 0 multiplicity 1
 C        -1.709098        -1.865934        -0.975050
 C        -1.427716        -0.421846        -1.073569
 C        -2.097577         0.625705        -1.889710
 C        -0.607634         0.263787        -2.114433
 C         0.546901         0.846107        -1.578936
 C         0.240910         0.845238        -0.077059
 O        -0.821253         0.032798         0.178809
 C         1.538316         0.597502         0.759005
 O         2.746714         0.589910         0.412741
 H        -0.928278        -2.481193        -0.489870
 H        -2.628511        -2.073723        -0.337262
 H        -1.956794        -2.307188        -1.900378
 H        -2.767502         0.211560        -2.623690
 H        -2.340515         1.613566        -1.573944
 H        -0.571848        -0.176152        -3.065647
 H         1.418016         0.170083        -1.842169
 H         0.825038         1.833242        -2.033418
 H        -0.039955         1.874206         0.242960
 H         1.382314         0.175418         1.753511
