19
Iteration:  3618
 C        -2.077737        -1.834051        -0.878893
 C        -1.324754        -0.453793        -1.123264
 C        -2.017545         0.655931        -1.846292
 C        -0.630930         0.122993        -2.323063
 C         0.579513         0.847438        -1.617978
 C         0.349532         0.853257        -0.108578
 O        -0.539477        -0.215812         0.019624
 C         1.482808         0.678280         0.904496
 O         2.633149         0.778911         0.561409
 H        -2.361150        -2.086666        -1.829695
 H        -1.557150        -2.537329        -0.177756
 H        -2.983291        -1.531853        -0.483734
 H        -2.854411         0.232801        -2.407062
 H        -2.002001         1.643934        -1.451609
 H        -0.423941        -0.352476        -3.260605
 H         1.696213         0.542663        -1.736839
 H         0.572479         1.940923        -1.986575
 H         0.030294         1.847963         0.273066
 H         1.073086         0.330349         1.880000
