19
Iteration:  2101
 C        -1.474496        -1.904774        -0.780940
 C        -1.296814        -0.396450        -0.967416
 C        -2.120362         0.544605        -1.874128
 C        -0.643135         0.275885        -2.089631
 C         0.480786         1.152164        -1.466677
 C         0.315695         0.939096         0.105506
 O        -0.949831         0.268422         0.229301
 C         1.554578         0.248694         0.563104
 O         2.584443         0.350149        -0.043981
 H        -2.568572        -2.123521        -0.412036
 H        -1.288073        -2.323929        -1.799470
 H        -0.750373        -2.246633        -0.152820
 H        -2.772059         0.194474        -2.684567
 H        -2.276678         1.548724        -1.450435
 H        -0.369983        -0.436469        -2.904614
 H         1.480678         0.886700        -1.614733
 H         0.121659         2.154609        -1.679410
 H         0.243588         1.987577         0.558514
 H         1.230627        -0.362640         1.479935
