19
Iteration:  3130charge 0 multiplicity 1
 C        -1.336105        -1.903622        -0.607649
 C        -1.309036        -0.371617        -1.004183
 C        -2.080262         0.479251        -1.932191
 C        -0.562082         0.408116        -2.138384
 C         0.432469         1.310294        -1.470607
 C         0.314235         0.935431         0.048901
 O        -1.005077         0.341423         0.235408
 C         1.457597         0.098134         0.528058
 O         2.531101         0.200227        -0.044421
 H        -2.231170        -2.205552        -0.026875
 H        -1.387133        -2.370519        -1.460011
 H        -0.449518        -2.061730        -0.117577
 H        -2.585372        -0.226163        -2.628179
 H        -2.664955         1.409997        -1.646346
 H        -0.278428        -0.338071        -2.929235
 H         1.454506         1.411841        -1.873782
 H         0.034997         2.375306        -1.446306
 H         0.374821         1.899535         0.737654
 H         1.308381        -0.547837         1.426026
