19
Iteration:  1281charge 0 multiplicity 1
 C        -1.599255        -1.884975        -0.762716
 C        -1.375733        -0.386749        -0.968267
 C        -2.184716         0.508846        -1.899507
 C        -0.713385         0.262519        -2.139177
 C         0.411615         1.254202        -1.563951
 C         0.312655         0.962984        -0.098932
 O        -0.822491         0.204744         0.203441
 C         1.657150         0.201934         0.578076
 O         2.737067         0.379166         0.241814
 H        -2.400789        -2.075705        -0.013089
 H        -1.913580        -2.289410        -1.653261
 H        -0.747585        -2.404929        -0.384893
 H        -2.854377        -0.060491        -2.587635
 H        -2.524213         1.439760        -1.338186
 H        -0.400568        -0.177306        -3.105874
 H         1.440853         1.098271        -1.929488
 H         0.147348         2.262963        -1.806612
 H         0.241120         1.847124         0.682025
 H         1.287830        -0.520652         1.453972
