19
Iteration:   785
 C        -1.397235        -1.855845        -0.727839
 C        -1.309274        -0.359427        -0.964481
 C        -2.116302         0.434418        -1.886864
 C        -0.541242         0.306489        -2.076727
 C         0.384138         1.277296        -1.442348
 C         0.288909         0.916516         0.059077
 O        -1.054209         0.446432         0.196748
 C         1.597950         0.069040         0.553934
 O         2.575398         0.241912        -0.043160
 H        -2.238601        -2.073961        -0.093286
 H        -1.635714        -2.436407        -1.661990
 H        -0.553027        -2.326348        -0.291658
 H        -2.692518        -0.201731        -2.642934
 H        -2.741622         1.218221        -1.375917
 H        -0.193697        -0.048787        -3.016107
 H         1.371459         1.122704        -1.900822
 H         0.327079         2.325857        -1.641757
 H         0.479123         1.921694         0.584707
 H         1.648032        -0.487016         1.586711
