19
Iteration:   959
 C        -1.659363        -1.866545        -0.801898
 C        -1.260027        -0.384362        -0.972331
 C        -2.105993         0.453068        -1.886699
 C        -0.602025         0.243189        -2.078909
 C         0.410905         1.281603        -1.526037
 C         0.343038         1.010722         0.043255
 O        -0.797311         0.197941         0.233747
 C         1.538479         0.300737         0.595809
 O         2.567461         0.304937         0.045795
 H        -2.376384        -2.024794         0.006415
 H        -1.997512        -2.332917        -1.793686
 H        -0.795281        -2.562520        -0.532092
 H        -2.678042        -0.122186        -2.658317
 H        -2.426205         1.497797        -1.626627
 H        -0.328408        -0.281527        -3.006479
 H         1.462953         0.863767        -1.671677
 H         0.288786         2.299821        -1.731217
 H         0.211673         1.862387         0.643560
 H         1.339932        -0.219777         1.604613
