19
Iteration:  3356
 C        -1.745953        -1.895876        -0.861908
 C        -1.318811        -0.467454        -1.060470
 C        -2.099220         0.523576        -1.942203
 C        -0.637797         0.194588        -2.147035
 C         0.421758         1.167991        -1.569011
 C         0.363400         1.017636        -0.054557
 O        -0.800883         0.099145         0.231215
 C         1.558235         0.351725         0.630125
 O         2.721004         0.463142         0.380117
 H        -2.471185        -2.181049        -1.626101
 H        -0.877873        -2.710050        -0.748517
 H        -2.335838        -1.730836         0.056389
 H        -2.813262         0.194108        -2.740545
 H        -2.217391         1.575880        -1.630574
 H        -0.261726        -0.523313        -2.917339
 H         1.466674         1.205639        -1.961123
 H        -0.101422         2.087617        -1.714077
 H         0.220762         2.164312         0.293232
 H         1.182704        -0.302806         1.463787
