19
Iteration:  3281
 C        -1.496691        -1.934953        -0.909429
 C        -1.285956        -0.379410        -0.906732
 C        -2.025683         0.573960        -1.853487
 C        -0.563923         0.180426        -2.104041
 C         0.469094         1.103934        -1.638568
 C         0.292528         1.009607        -0.001356
 O        -0.949364         0.258202         0.309191
 C         1.437248         0.300121         0.543613
 O         2.593902         0.382072         0.236227
 H        -0.719042        -2.311940        -1.634820
 H        -1.446834        -2.317429         0.235834
 H        -2.547953        -2.069890        -1.098068
 H        -2.718755         0.160061        -2.641121
 H        -2.330560         1.496079        -1.313194
 H        -0.345757        -0.315620        -3.100513
 H         1.464909         0.795619        -1.949243
 H         0.172654         2.104624        -1.933289
 H         0.203393         2.050590         0.203014
 H         1.037690        -0.591733         1.143418
