19
Iteration:  2515charge 0 multiplicity 1
 C        -1.649345        -1.864665        -0.784405
 C        -1.348423        -0.363591        -0.993985
 C        -2.096193         0.640010        -1.862741
 C        -0.610005         0.204173        -2.120545
 C         0.401110         1.149128        -1.535016
 C         0.256969         0.924549         0.016780
 O        -0.857113         0.091312         0.261804
 C         1.609240         0.244599         0.549504
 O         2.682210         0.466296         0.113987
 H        -2.200597        -1.967683         0.069805
 H        -2.035123        -2.426037        -1.682123
 H        -0.645014        -2.273067        -0.523167
 H        -2.670452         0.200982        -2.691370
 H        -2.270866         1.669612        -1.512637
 H        -0.559408        -0.278064        -3.113022
 H         1.354238         0.669863        -1.804518
 H         0.314468         2.244339        -1.744355
 H         0.229698         1.867707         0.475096
 H         1.523781        -0.354576         1.467476
