19
Iteration:  2399charge 0 multiplicity 1
 C        -1.658655        -1.911139        -0.775417
 C        -1.297841        -0.433804        -0.972768
 C        -2.110182         0.577367        -1.837733
 C        -0.585063         0.210862        -2.168143
 C         0.366350         1.253664        -1.564914
 C         0.271365         1.047752         0.034496
 O        -0.778777         0.135423         0.188265
 C         1.545785         0.292692         0.530070
 O         2.702009         0.329369         0.192051
 H        -2.098161        -2.058807         0.371350
 H        -2.418444        -2.065479        -1.522496
 H        -0.758103        -2.582227        -0.804044
 H        -2.679533         0.045363        -2.560415
 H        -2.372959         1.529772        -1.402346
 H        -0.407571        -0.285106        -3.152789
 H         1.366490         1.065456        -1.875512
 H        -0.000242         2.217827        -1.856581
 H        -0.043254         1.960051         0.480442
 H         1.271242        -0.230105         1.477740
