19
Iteration:  3614charge 0 multiplicity 1
 C        -2.066527        -1.835404        -0.883103
 C        -1.310471        -0.443180        -1.123842
 C        -1.963927         0.657827        -1.846473
 C        -0.625800         0.143950        -2.302985
 C         0.591900         0.864904        -1.623246
 C         0.313534         0.880074        -0.124439
 O        -0.553773        -0.218880         0.047462
 C         1.468766         0.664039         0.913884
 O         2.648510         0.765244         0.537193
 H        -2.245997        -2.364371        -1.938078
 H        -1.582836        -2.511741        -0.130633
 H        -3.156570        -1.561494        -0.462611
 H        -2.834289         0.300019        -2.434662
 H        -2.025430         1.707542        -1.398733
 H        -0.539383        -0.472732        -3.214783
 H         1.594843         0.517165        -1.715722
 H         0.464072         1.849479        -2.057169
 H        -0.202459         1.775577         0.180219
 H         1.146136         0.315867         1.893737
