19
Iteration:  3875
 C        -2.127685        -1.768917        -0.975875
 C        -1.512047        -0.400464        -0.957747
 C        -1.884499         0.860132        -1.810848
 C        -0.702149        -0.054446        -2.261769
 C         0.697629         0.387855        -1.847442
 C         0.479945         0.863094        -0.327196
 O        -0.600211        -0.134034         0.096750
 C         1.736115         0.475584         0.491985
 O         2.381702         1.266027         1.188237
 H        -2.347119        -2.251367         0.016057
 H        -2.966014        -1.798262        -1.567668
 H        -1.477295        -2.564353        -1.492637
 H        -2.780189         0.681513        -2.469561
 H        -1.753294         1.896225        -1.351908
 H        -0.883907        -0.760054        -3.129625
 H         1.405568        -0.490475        -1.808302
 H         0.941318         1.091816        -2.625685
 H         0.154828         1.835881        -0.097137
 H         1.961929        -0.596830         0.457044
