19
Iteration:   659charge 0 multiplicity 1
 C        -1.341116        -1.753581        -0.638008
 C        -1.330182        -0.330380        -0.999936
 C        -2.121122         0.562734        -1.964285
 C        -0.598597         0.269141        -2.162127
 C         0.347951         1.258705        -1.525963
 C         0.312074         0.977696         0.097768
 O        -0.951628         0.210734         0.268418
 C         1.505559         0.143725         0.553050
 O         2.607408         0.216352        -0.020292
 H        -2.139418        -2.000915         0.150404
 H        -1.873463        -2.270836        -1.511423
 H        -0.376226        -2.288900        -0.239236
 H        -2.883041         0.110577        -2.654382
 H        -2.288994         1.561711        -1.556389
 H        -0.207348        -0.369997        -2.935448
 H         1.314823         1.016084        -1.883317
 H         0.024360         2.192539        -1.665428
 H         0.341977         1.770105         0.832857
 H         1.298856        -0.605234         1.346774
