19
Iteration:  1581charge 0 multiplicity 1
 C        -1.415142        -1.917179        -0.793742
 C        -1.332832        -0.348460        -0.949024
 C        -2.093157         0.522328        -1.896788
 C        -0.563504         0.266866        -2.068213
 C         0.427716         1.221163        -1.495603
 C         0.314761         0.940759         0.059612
 O        -0.992540         0.380302         0.319806
 C         1.481886         0.077390         0.427051
 O         2.614012         0.381561         0.028573
 H        -2.354049        -2.274843        -0.327336
 H        -1.284208        -2.704419        -1.574314
 H        -0.620632        -2.062743         0.051511
 H        -2.785718        -0.000657        -2.521708
 H        -2.417981         1.410969        -1.386823
 H        -0.329282        -0.284039        -2.972425
 H         1.411059         0.793696        -1.810042
 H         0.184322         2.302737        -1.798613
 H         0.275341         1.869114         0.631702
 H         1.139111        -0.897279         0.921087
