19
Iteration:  4054charge 0 multiplicity 1
 C        -2.018203        -1.819703        -0.943217
 C        -1.386200        -0.406544        -1.027720
 C        -1.962864         0.768238        -1.826371
 C        -0.632253         0.103037        -2.238742
 C         0.683322         0.651256        -1.785081
 C         0.331412         0.836244        -0.252904
 O        -0.634820        -0.106162         0.166137
 C         1.467481         0.521710         0.709919
 O         2.602897         0.950120         0.724810
 H        -1.754998        -2.432286        -1.755859
 H        -1.624777        -2.429741        -0.036921
 H        -3.062502        -1.657860        -0.691726
 H        -2.854538         0.427589        -2.312504
 H        -1.885739         1.762068        -1.442056
 H        -0.600807        -0.543051        -3.119681
 H         1.337154        -0.213176        -1.789428
 H         1.046920         1.639882        -2.152845
 H        -0.060245         1.836279         0.126742
 H         1.191819        -0.245850         1.489529
