19
Iteration:  1846
 C        -1.410661        -1.922189        -0.766831
 C        -1.272363        -0.419989        -0.880210
 C        -1.984577         0.477125        -1.962176
 C        -0.515178         0.277898        -2.016700
 C         0.412085         1.248901        -1.440890
 C         0.269800         1.049694         0.088267
 O        -0.966956         0.352746         0.295649
 C         1.413516         0.166937         0.506420
 O         2.536034         0.276970        -0.085897
 H        -1.952587        -2.151025         0.106071
 H        -1.994662        -2.202305        -1.642285
 H        -0.473069        -2.519040        -0.896148
 H        -2.863998         0.072534        -2.521444
 H        -2.231132         1.512328        -1.711356
 H        -0.320868        -0.391838        -2.846701
 H         1.447222         0.985685        -1.856910
 H         0.040149         2.273177        -1.843717
 H         0.233674         1.958943         0.568647
 H         1.057976        -0.664728         1.142844
