19
Iteration:  3882
 C        -2.123473        -1.754034        -0.948234
 C        -1.420590        -0.377281        -1.035374
 C        -1.932969         0.780847        -1.843504
 C        -0.722992        -0.037464        -2.248267
 C         0.669996         0.396380        -1.819402
 C         0.462405         0.804089        -0.229051
 O        -0.579148        -0.108700         0.031524
 C         1.738230         0.483967         0.497566
 O         2.383796         1.252154         1.179359
 H        -2.449095        -2.006240         0.097354
 H        -3.037113        -1.745344        -1.619098
 H        -1.469837        -2.509662        -1.237630
 H        -2.913123         0.843393        -2.336951
 H        -1.792200         1.720221        -1.322785
 H        -0.884302        -0.705957        -3.044573
 H         1.370686        -0.383041        -1.894673
 H         1.042184         1.124809        -2.548460
 H         0.240226         1.941667        -0.189217
 H         1.979852        -0.627208         0.456633
