19
Iteration:  1110
 C        -1.592590        -1.820638        -0.746061
 C        -1.328185        -0.359633        -0.951890
 C        -2.219239         0.489902        -1.851820
 C        -0.676608         0.232052        -2.153602
 C         0.301881         1.270918        -1.596577
 C         0.392629         0.976510        -0.097135
 O        -0.806178         0.233194         0.213557
 C         1.618732         0.113664         0.507992
 O         2.744504         0.364944         0.306237
 H        -2.441684        -2.023538        -0.145324
 H        -1.866169        -2.299598        -1.702576
 H        -0.637989        -2.287954        -0.392270
 H        -2.779281        -0.244621        -2.488732
 H        -2.788991         1.410897        -1.587309
 H        -0.319355        -0.304618        -3.045826
 H         1.444798         1.241090        -1.932555
 H        -0.027723         2.408615        -1.797429
 H         0.226001         1.860713         0.515516
 H         1.228995        -0.676758         1.122787
