19
Iteration:    99
 C        -1.827877        -1.857792        -0.914133
 C        -1.331590        -0.453712        -0.984247
 C        -2.114531         0.521437        -1.620431
 C        -0.720413         0.297719        -2.271146
 C         0.424976         1.182542        -1.672619
 C         0.283506         1.023005        -0.107576
 O        -0.706023         0.000475         0.255611
 C         1.632407         0.442467         0.603749
 O         2.784488         0.351543         0.304631
 H        -2.618752        -1.843291        -0.226144
 H        -2.158762        -2.207655        -1.867988
 H        -1.141417        -2.553859        -0.544454
 H        -2.928210         0.257652        -2.229726
 H        -2.125747         1.547477        -1.302830
 H        -0.555053        -0.308563        -3.167345
 H         1.397731         0.804728        -1.916648
 H         0.372962         2.114714        -1.894597
 H        -0.020326         1.950931         0.316433
 H         1.380800         0.215394         1.658769
