19
Iteration:  3260
 C        -1.507684        -1.905603        -0.860154
 C        -1.308429        -0.338468        -0.931340
 C        -2.062461         0.492572        -1.902745
 C        -0.567537         0.191111        -2.147407
 C         0.456595         1.189384        -1.501218
 C         0.237900         1.053047        -0.004197
 O        -0.899192         0.278074         0.243676
 C         1.488843         0.140621         0.551191
 O         2.573361         0.401584         0.162295
 H        -0.552832        -2.396819        -1.285784
 H        -1.642506        -2.137544         0.302590
 H        -2.462389        -2.241320        -1.223561
 H        -2.853758         0.115733        -2.600236
 H        -2.156012         1.549167        -1.580339
 H        -0.183162        -0.560441        -2.909766
 H         1.455242         0.766701        -1.663806
 H         0.363148         2.220335        -1.900166
 H         0.099511         1.877370         0.605806
 H         1.297341        -0.448324         1.497432
