19
Iteration:  4974
 C        -1.590014        -1.805311        -0.687974
 C        -1.269244        -0.345968        -1.081649
 C        -1.854494         0.332024        -2.343397
 C        -0.403931         0.057510        -2.241259
 C         0.616205         0.988628        -1.519576
 C         0.179065         0.988750        -0.091850
 O        -0.985051         0.323238         0.158839
 C         1.292743         0.531712         0.844556
 O         2.438524         0.408100         0.541033
 H        -0.572885        -2.325998        -0.456578
 H        -2.126296        -1.621553         0.279627
 H        -2.086942        -2.297300        -1.527232
 H        -2.459318        -0.250801        -3.025617
 H        -2.080077         1.374658        -2.216332
 H         0.036606        -0.744226        -2.954315
 H         1.686752         0.639361        -1.686234
 H         0.745383         1.975687        -1.913818
 H         0.018086         2.056210         0.145837
 H         0.928783         0.015994         1.807704
