19
Iteration:  1235charge 0 multiplicity 1
 C        -1.670044        -1.895434        -0.799115
 C        -1.286071        -0.409021        -0.918467
 C        -2.071454         0.478556        -1.724132
 C        -0.610016         0.235208        -2.106010
 C         0.326970         1.316634        -1.636486
 C         0.410794         0.956246        -0.121712
 O        -0.829028         0.245099         0.244979
 C         1.489026         0.103335         0.435060
 O         2.700761         0.448584         0.299840
 H        -2.656065        -2.155681        -0.417125
 H        -1.661871        -2.173030        -1.806595
 H        -0.987088        -2.510251        -0.325685
 H        -2.736273         0.081586        -2.499325
 H        -2.194009         1.481306        -1.372140
 H        -0.504790        -0.451392        -2.959265
 H         1.262943         1.230883        -2.285333
 H        -0.064126         2.361578        -1.792228
 H         0.373941         1.984859         0.386485
 H         1.159736        -0.885064         1.003020
