19
Iteration:   865
 C        -1.582461        -1.890390        -0.748883
 C        -1.295027        -0.459281        -1.045897
 C        -2.153937         0.341878        -1.885679
 C        -0.684613         0.372412        -2.110891
 C         0.352993         1.417695        -1.512301
 C         0.383417         1.042528        -0.016466
 O        -0.894027         0.284868         0.162857
 C         1.623763         0.306502         0.607253
 O         2.707361         0.086946         0.169404
 H        -2.197080        -1.911922         0.165148
 H        -2.004241        -2.455138        -1.551837
 H        -0.688397        -2.307660        -0.481609
 H        -2.616829        -0.111386        -2.732463
 H        -2.653478         1.201635        -1.505483
 H        -0.321787        -0.055255        -3.087722
 H         1.194837         1.223171        -2.088373
 H        -0.120448         2.484783        -1.568326
 H         0.303994         2.020085         0.650768
 H         1.368286        -0.135188         1.623013
