19
Iteration:  2634
 C        -1.538525        -1.864477        -0.843919
 C        -1.395888        -0.417354        -0.941099
 C        -2.169853         0.549452        -1.769707
 C        -0.707683         0.315171        -2.097682
 C         0.475337         1.115075        -1.587381
 C         0.408910         0.862779        -0.029548
 O        -0.933630         0.352255         0.170713
 C         1.599098         0.084508         0.513752
 O         2.671001         0.506747         0.213872
 H        -2.410621        -2.281172        -0.336091
 H        -1.416248        -2.325802        -1.962105
 H        -0.611956        -2.184132        -0.118389
 H        -2.878273         0.037997        -2.406827
 H        -2.420868         1.407420        -1.171876
 H        -0.540528        -0.350996        -2.941333
 H         1.339260         0.555524        -1.927858
 H         0.495467         2.131064        -1.813178
 H         0.209103         1.832127         0.603060
 H         1.380439        -0.808745         1.176211
