19
Iteration:   669
 C        -1.367787        -1.741188        -0.646151
 C        -1.372391        -0.331553        -1.014840
 C        -2.096796         0.581204        -1.961467
 C        -0.581952         0.219587        -2.109716
 C         0.348044         1.214111        -1.426775
 C         0.251091         0.927793         0.106044
 O        -0.914597         0.262736         0.260201
 C         1.533804         0.127164         0.497862
 O         2.597846         0.237069        -0.049911
 H        -2.112745        -1.763808         0.234732
 H        -1.669873        -2.478920        -1.534686
 H        -0.263290        -2.050560        -0.409752
 H        -2.530118         0.046993        -2.853121
 H        -2.567537         1.557284        -1.772750
 H        -0.437863        -0.415263        -2.950327
 H         1.330743         1.197358        -1.727981
 H         0.190826         2.253395        -1.656910
 H         0.168265         1.788835         0.764975
 H         1.388656        -0.614402         1.384424
