19
Iteration:  3439charge 0 multiplicity 1
 C        -1.748249        -1.793175        -0.884057
 C        -1.395080        -0.423125        -1.039085
 C        -2.107104         0.545737        -2.004863
 C        -0.592159         0.163333        -2.165096
 C         0.534636         1.051521        -1.589309
 C         0.347587         0.791678        -0.042037
 O        -0.897088         0.107493         0.246768
 C         1.563995         0.327873         0.683502
 O         2.738096         0.647449         0.363629
 H        -2.527060        -1.801889        -0.146575
 H        -2.201451        -2.218559        -1.692237
 H        -0.970436        -2.520835        -0.527352
 H        -2.867629         0.144547        -2.697176
 H        -2.401473         1.428274        -1.448538
 H        -0.212154        -0.315805        -3.090029
 H         1.579909         0.931249        -1.937246
 H         0.223186         2.089671        -1.889625
 H         0.216256         1.771986         0.635768
 H         1.469123        -0.066274         1.710595
