19
Iteration:  2042
 C        -1.632872        -1.858153        -0.785825
 C        -1.267214        -0.438816        -0.964449
 C        -2.150415         0.417147        -1.895065
 C        -0.568227         0.264670        -2.138408
 C         0.203107         1.377380        -1.577704
 C         0.352490         1.019028        -0.019414
 O        -0.827884         0.237991         0.236144
 C         1.607400         0.222168         0.575840
 O         2.695117         0.225621         0.197509
 H        -2.238220        -2.077329         0.023962
 H        -2.071915        -2.242045        -1.689035
 H        -0.604812        -2.418160        -0.619910
 H        -2.865185        -0.032951        -2.576029
 H        -2.422885         1.462472        -1.726860
 H        -0.229594        -0.225302        -3.026994
 H         1.250766         1.517157        -1.836291
 H        -0.136247         2.344013        -1.728996
 H         0.542163         2.041676         0.611412
 H         1.375211        -0.349259         1.480610
