19
Iteration:  3830charge 0 multiplicity 1
 C        -2.199659        -1.675986        -0.886733
 C        -1.401061        -0.427842        -1.073551
 C        -1.956485         0.780699        -1.715624
 C        -0.630219         0.009964        -2.306453
 C         0.713294         0.466882        -1.790675
 C         0.541399         0.721487        -0.328207
 O        -0.590098        -0.189188        -0.000880
 C         1.742112         0.393445         0.608908
 O         2.257424         1.342601         1.073889
 H        -1.923123        -2.021080         0.184947
 H        -3.222136        -1.611821        -1.081281
 H        -1.865329        -2.488046        -1.557018
 H        -2.838999         0.638734        -2.431834
 H        -1.781912         1.794240        -1.257234
 H        -0.872812        -0.215451        -3.321089
 H         1.316494        -0.550110        -1.717437
 H         1.308290         1.171990        -2.332206
 H         0.348911         1.745234        -0.229865
 H         2.144011        -0.637242         0.696197
