19
Iteration:  4207charge 0 multiplicity 1
 C        -1.888382        -1.815013        -0.859747
 C        -1.454258        -0.361050        -1.071123
 C        -2.095685         0.589376        -2.008373
 C        -0.666167         0.127153        -2.201389
 C         0.604048         0.726181        -1.766783
 C         0.526224         0.825969        -0.233349
 O        -0.776246         0.028463         0.112116
 C         1.522291         0.494551         0.794327
 O         2.686230         0.858612         0.817770
 H        -2.970862        -2.008993        -1.233224
 H        -1.075382        -2.525499        -1.352571
 H        -2.056078        -1.994711         0.280802
 H        -2.904026         0.222193        -2.662894
 H        -2.190988         1.676625        -1.876917
 H        -0.607384        -0.517369        -3.094652
 H         1.441744         0.110275        -2.145876
 H         0.910380         1.717349        -2.206719
 H         0.224649         1.729161         0.166580
 H         1.103324        -0.150383         1.611977
