19
Iteration:   747charge 0 multiplicity 1
 C        -1.518036        -1.863111        -0.672087
 C        -1.291031        -0.396934        -0.944505
 C        -2.005426         0.500311        -2.009856
 C        -0.542836         0.316948        -2.037108
 C         0.210808         1.422454        -1.505670
 C         0.261580         1.066962        -0.048585
 O        -0.850418         0.240690         0.347298
 C         1.537844         0.094017         0.438980
 O         2.637960         0.135169         0.042630
 H        -2.484201        -2.054323        -0.112360
 H        -1.398124        -2.387030        -1.621247
 H        -0.604798        -2.162663         0.039481
 H        -2.571659        -0.157243        -2.594146
 H        -2.537110         1.409816        -1.789135
 H        -0.137212        -0.128271        -2.969876
 H         1.238884         1.453867        -1.881912
 H        -0.362189         2.385395        -1.676980
 H         0.258523         1.935907         0.560081
 H         1.167646        -0.517391         1.339891
