19
Iteration:  2446charge 0 multiplicity 1
 C        -1.641909        -1.874886        -0.909190
 C        -1.349105        -0.449392        -0.976635
 C        -2.198234         0.476543        -1.764171
 C        -0.738849         0.271440        -2.159988
 C         0.339165         1.228747        -1.631640
 C         0.400490         1.001905        -0.106894
 O        -0.744190         0.204654         0.245600
 C         1.573286         0.309355         0.654852
 O         2.761905         0.314589         0.261446
 H        -2.573836        -1.935067        -0.358013
 H        -1.642598        -2.392918        -1.939515
 H        -0.816646        -2.131729        -0.128057
 H        -2.841202        -0.089927        -2.438818
 H        -2.413607         1.492117        -1.467999
 H        -0.536107        -0.201041        -3.097186
 H         1.337506         0.859131        -1.925733
 H         0.110188         2.213192        -1.943198
 H         0.235336         1.888385         0.477668
 H         1.251336        -0.091703         1.623977
