19
Iteration:  1804charge 0 multiplicity 1
 C        -1.400177        -1.857002        -0.725341
 C        -1.265549        -0.394510        -0.928247
 C        -2.107643         0.437949        -1.965634
 C        -0.629963         0.330586        -2.155706
 C         0.270165         1.348889        -1.458753
 C         0.334303         0.960150         0.016519
 O        -0.958276         0.318051         0.232312
 C         1.520517         0.220842         0.617758
 O         2.646462         0.126861        -0.002126
 H        -1.949391        -1.934635         0.247146
 H        -1.767294        -2.423668        -1.573422
 H        -0.486882        -2.313144        -0.498105
 H        -2.690609        -0.116988        -2.731455
 H        -2.600538         1.393880        -1.786735
 H        -0.078516        -0.261427        -2.896741
 H         1.260612         1.323179        -1.962121
 H         0.050232         2.449499        -1.398316
 H         0.365913         1.972958         0.676230
 H         1.224107        -0.290648         1.614891
