19
Iteration:  1666charge 0 multiplicity 1
 C        -1.519645        -1.952803        -0.750368
 C        -1.186502        -0.405700        -0.885085
 C        -2.002626         0.412994        -1.839209
 C        -0.513606         0.324145        -2.151914
 C         0.288381         1.389487        -1.509818
 C         0.318975         1.139888        -0.028651
 O        -0.900538         0.255282         0.303340
 C         1.431779         0.239694         0.468034
 O         2.571101         0.119302         0.044592
 H        -1.942091        -2.096340         0.145304
 H        -2.189726        -2.217837        -1.592608
 H        -0.623634        -2.586678        -0.793565
 H        -2.668345         0.039714        -2.613314
 H        -2.316754         1.371971        -1.460033
 H        -0.121455        -0.334157        -2.940759
 H         1.251173         1.602581        -1.918024
 H        -0.202532         2.337072        -1.659809
 H         0.106008         2.067155         0.579945
 H         1.181478        -0.469303         1.238296
