19
Iteration:  3682charge 0 multiplicity 1
 C        -1.974239        -1.806260        -1.099887
 C        -1.430928        -0.423703        -1.007482
 C        -1.922276         0.780607        -1.714127
 C        -0.635451         0.084024        -2.202845
 C         0.681247         0.586998        -1.728549
 C         0.397677         0.791906        -0.175625
 O        -0.691109        -0.100036         0.137121
 C         1.513794         0.449805         0.728716
 O         2.525400         1.100728         0.667094
 H        -3.045705        -1.784156        -1.264375
 H        -1.547857        -2.646459        -1.818078
 H        -1.869153        -2.241084        -0.049039
 H        -2.805781         0.729748        -2.388666
 H        -1.945562         1.712982        -1.168841
 H        -0.647918        -0.650512        -2.993918
 H         1.432013        -0.236267        -1.947235
 H         1.036756         1.551207        -2.160122
 H         0.115475         1.912930         0.054464
 H         1.380460        -0.418125         1.469784
