19
Iteration:  2128charge 0 multiplicity 1
 C        -1.532182        -1.887987        -0.806432
 C        -1.371778        -0.347865        -0.938789
 C        -2.076451         0.465282        -1.953788
 C        -0.667283         0.312055        -2.090738
 C         0.388297         1.275542        -1.521957
 C         0.332578         0.910153         0.050047
 O        -0.980845         0.259462         0.270358
 C         1.572752         0.209798         0.602155
 O         2.739809         0.303409         0.014886
 H        -2.359281        -2.027102        -0.198726
 H        -1.556082        -2.421336        -1.741708
 H        -0.514484        -2.277785        -0.290187
 H        -2.806972        -0.107620        -2.534816
 H        -2.461615         1.391155        -1.540917
 H        -0.281695        -0.427808        -2.815397
 H         1.531645         1.130494        -1.765784
 H        -0.015124         2.351814        -1.695200
 H         0.270496         1.798001         0.534140
 H         1.299575        -0.173356         1.582169
