19
Iteration:  3364
 C        -1.775335        -1.859113        -0.861125
 C        -1.305147        -0.446518        -1.012829
 C        -2.021614         0.544304        -1.928117
 C        -0.574645         0.112859        -2.165506
 C         0.382518         1.185192        -1.587274
 C         0.309944         1.001234        -0.015429
 O        -0.785194         0.128286         0.247696
 C         1.498085         0.337480         0.622401
 O         2.718562         0.492524         0.351947
 H        -2.508844        -2.094084        -1.576586
 H        -0.984455        -2.583301        -1.085120
 H        -2.244388        -2.209753         0.110145
 H        -2.695071         0.137227        -2.698529
 H        -2.277133         1.499791        -1.432310
 H        -0.405359        -0.429975        -3.126133
 H         1.476594         1.047273        -1.889279
 H         0.085525         2.204573        -2.056360
 H         0.186351         1.942167         0.341870
 H         1.279289        -0.463800         1.391585
