19
Iteration:  2647charge 0 multiplicity 1
 C        -1.519389        -1.933234        -0.839881
 C        -1.360555        -0.375614        -0.913023
 C        -2.228994         0.541704        -1.794073
 C        -0.729487         0.287709        -2.125171
 C         0.444013         1.103276        -1.590083
 C         0.362195         0.910440        -0.075065
 O        -0.893799         0.355334         0.247617
 C         1.594988         0.159278         0.493483
 O         2.718548         0.432740         0.274552
 H        -2.554754        -2.285522        -0.584801
 H        -1.326227        -2.321028        -1.914223
 H        -0.643318        -2.565901        -0.242726
 H        -2.890448         0.300375        -2.582752
 H        -2.538815         1.495399        -1.390476
 H        -0.603975        -0.250302        -3.070941
 H         1.402699         0.811804        -1.994982
 H         0.265547         2.202487        -1.763600
 H         0.628615         1.907032         0.371120
 H         1.313868        -0.731978         1.142392
