19
Iteration:  4878
 C        -1.770207        -1.814496        -0.717305
 C        -1.370835        -0.403397        -1.140413
 C        -1.831776         0.477857        -2.332298
 C        -0.447627        -0.014417        -2.226976
 C         0.573344         0.999580        -1.598629
 C         0.192171         0.983832        -0.075110
 O        -0.896398         0.180154         0.191819
 C         1.376763         0.423744         0.811607
 O         2.564344         0.610520         0.617460
 H        -2.015884        -1.843886         0.452486
 H        -2.586329        -2.152990        -1.256266
 H        -0.801017        -2.418895        -0.650889
 H        -2.435145        -0.162199        -2.975987
 H        -1.995136         1.565120        -2.320475
 H         0.071673        -0.588770        -3.109461
 H         1.644104         0.677752        -1.543315
 H         0.655433         2.038558        -2.064868
 H        -0.058552         2.035089         0.313068
 H         1.167649        -0.141841         1.754543
