19
Iteration:  1917
 C        -1.562911        -1.834953        -0.706943
 C        -1.324863        -0.388846        -0.947461
 C        -2.130078         0.409210        -1.995775
 C        -0.576452         0.308126        -2.118077
 C         0.277721         1.415117        -1.488645
 C         0.366847         0.917233        -0.023621
 O        -0.912590         0.273398         0.230641
 C         1.571706         0.203327         0.559447
 O         2.752979         0.216127         0.099331
 H        -2.605026        -1.984222        -0.288308
 H        -1.233830        -2.384065        -1.600343
 H        -0.873030        -2.266864        -0.071201
 H        -2.779319        -0.207506        -2.615362
 H        -2.803694         1.242098        -1.751548
 H        -0.126200        -0.344084        -2.975598
 H         1.176157         1.447649        -2.040317
 H        -0.285016         2.345075        -1.431657
 H         0.154259         1.796971         0.742651
 H         1.475200        -0.343402         1.588965
