19
Iteration:  4332
 C        -2.053561        -1.752653        -0.721684
 C        -1.315433        -0.474470        -1.041959
 C        -1.999468         0.534857        -1.892794
 C        -0.661121         0.065873        -2.299170
 C         0.538303         0.897943        -1.852395
 C         0.472177         0.959090        -0.300984
 O        -0.590898         0.097314         0.115288
 C         1.717182         0.271311         0.368386
 O         2.427223         0.873464         1.129077
 H        -1.943928        -2.649047        -1.493080
 H        -1.726547        -2.259651         0.158536
 H        -3.140163        -1.472913        -0.542245
 H        -2.875929         0.233759        -2.486453
 H        -2.257013         1.526942        -1.535324
 H        -0.518338        -0.803308        -3.055687
 H         1.444625         0.434151        -2.173907
 H         0.413419         1.910182        -2.237022
 H         0.228468         1.868765         0.132512
 H         1.632521        -0.843439         0.424199
