19
Iteration:   770charge 0 multiplicity 1
 C        -1.449420        -1.841330        -0.676616
 C        -1.295118        -0.396992        -1.010025
 C        -2.162470         0.419949        -1.964743
 C        -0.619604         0.312008        -2.124873
 C         0.391920         1.360908        -1.421258
 C         0.308959         0.944349         0.087317
 O        -0.999296         0.363104         0.194292
 C         1.610123         0.133544         0.526458
 O         2.644672         0.189429        -0.026255
 H        -2.366849        -1.950472        -0.031338
 H        -1.401046        -2.446645        -1.560039
 H        -0.482448        -2.091982         0.032795
 H        -2.854885         0.046052        -2.679151
 H        -2.389436         1.408927        -1.652986
 H        -0.298664        -0.474145        -2.865237
 H         1.476804         1.423330        -1.710910
 H        -0.093197         2.344865        -1.425210
 H         0.271570         1.641550         0.879139
 H         1.397782        -0.446774         1.504184
