19
Iteration:  3360
 C        -1.748071        -1.877773        -0.858257
 C        -1.307934        -0.458568        -1.049390
 C        -2.066369         0.535260        -1.937198
 C        -0.618461         0.149669        -2.155696
 C         0.410920         1.177801        -1.574742
 C         0.343745         1.007750        -0.027829
 O        -0.792484         0.111380         0.243278
 C         1.514051         0.345663         0.625267
 O         2.727674         0.476289         0.367069
 H        -2.555547        -2.165871        -1.639718
 H        -0.985120        -2.618890        -0.917508
 H        -2.318273        -1.967844         0.084010
 H        -2.703283         0.185674        -2.713474
 H        -2.232569         1.520453        -1.537066
 H        -0.344727        -0.467790        -2.977315
 H         1.423903         1.152263        -1.887204
 H        -0.049439         2.128946        -1.914674
 H         0.215999         2.135416         0.253174
 H         1.264924        -0.378166         1.416238
