19
Iteration:  2604charge 0 multiplicity 1
 C        -1.592192        -1.836165        -0.732784
 C        -1.377683        -0.402766        -0.972364
 C        -2.077898         0.589764        -1.904135
 C        -0.673856         0.308472        -2.149337
 C         0.423592         1.129481        -1.536039
 C         0.339853         0.892248         0.002438
 O        -0.859637         0.169981         0.265208
 C         1.514507         0.140963         0.470355
 O         2.712047         0.519909         0.178883
 H        -2.209296        -2.091232         0.121925
 H        -1.980188        -2.360707        -1.596613
 H        -0.609041        -2.383147        -0.591522
 H        -2.805919         0.263638        -2.628563
 H        -2.365836         1.510829        -1.424045
 H        -0.490778        -0.367806        -2.969762
 H         1.400611         0.787540        -1.864052
 H         0.297799         2.271549        -1.600040
 H         0.170226         1.771245         0.526817
 H         1.283381        -0.811524         0.972727
