19
Iteration:  3317
 C        -1.620130        -1.886878        -0.820753
 C        -1.285795        -0.394744        -1.026939
 C        -2.164447         0.495826        -1.907364
 C        -0.639215         0.293677        -2.237626
 C         0.410947         1.129205        -1.603718
 C         0.348744         0.976504        -0.072614
 O        -0.853028         0.172529         0.214691
 C         1.579789         0.322847         0.679442
 O         2.703301         0.393010         0.368209
 H        -1.425559        -2.707150        -1.578112
 H        -1.160216        -2.238395         0.049527
 H        -2.697618        -1.978100        -0.681662
 H        -2.848467         0.087253        -2.634704
 H        -2.503308         1.403446        -1.436843
 H        -0.421864        -0.211130        -3.158696
 H         1.371409         1.032632        -2.132134
 H         0.177567         2.245604        -1.729211
 H         0.125151         1.824213         0.440451
 H         1.231116        -0.257793         1.603284
