19
Iteration:  4756charge 0 multiplicity 1
 C        -1.916204        -1.823961        -0.771804
 C        -1.349833        -0.460279        -1.116916
 C        -1.920002         0.487414        -2.001985
 C        -0.498151         0.079025        -2.264613
 C         0.670914         0.880894        -1.639080
 C         0.338044         0.959910        -0.198816
 O        -0.829108         0.121344         0.083493
 C         1.401665         0.488496         0.791192
 O         2.599653         0.738909         0.694167
 H        -1.937549        -2.428990        -1.780699
 H        -1.326115        -2.498738        -0.202867
 H        -2.987645        -1.815595        -0.510410
 H        -2.672784         0.157438        -2.686817
 H        -2.045651         1.394965        -1.492419
 H        -0.291448        -0.582744        -3.023610
 H         1.672362         0.381277        -1.847343
 H         0.623278         1.902052        -1.920872
 H        -0.104615         2.032173         0.026437
 H         1.033527        -0.147390         1.620577
