19
Iteration:  3678
 C        -1.988667        -1.810251        -1.098328
 C        -1.433931        -0.475209        -0.999631
 C        -1.914786         0.772424        -1.727782
 C        -0.632642         0.090592        -2.209109
 C         0.645935         0.614634        -1.727413
 C         0.390622         0.810212        -0.204648
 O        -0.664701        -0.095735         0.114509
 C         1.519937         0.461559         0.748596
 O         2.533586         1.074699         0.673158
 H        -3.084283        -1.872624        -1.378920
 H        -1.597295        -2.513158        -1.721250
 H        -1.865292        -2.157331        -0.037665
 H        -2.855626         0.802252        -2.305734
 H        -1.943540         1.732929        -1.162974
 H        -0.613412        -0.717556        -2.931782
 H         1.429954        -0.091058        -1.698317
 H         0.979474         1.507278        -2.193124
 H         0.248924         1.906219         0.110618
 H         1.371315        -0.328755         1.536416
