19
Iteration:   515charge 0 multiplicity 1
 C        -1.621590        -1.910151        -0.863977
 C        -1.314889        -0.432479        -0.832003
 C        -2.021302         0.434165        -1.874831
 C        -0.588385         0.198482        -2.060501
 C         0.439579         1.353464        -1.490174
 C         0.390939         1.163015        -0.005674
 O        -0.809553         0.270188         0.307990
 C         1.467995         0.274537         0.526175
 O         2.558674         0.204346        -0.006951
 H        -2.190551        -2.400557         0.020128
 H        -2.233683        -2.073304        -1.894433
 H        -0.739675        -2.585067        -0.701082
 H        -2.785257        -0.096247        -2.533251
 H        -2.443780         1.480017        -1.658670
 H        -0.334602        -0.374753        -2.960170
 H         1.475737         1.156200        -1.743437
 H        -0.042428         2.265999        -1.743100
 H         0.154257         2.103534         0.496863
 H         1.134663        -0.553714         1.302684
