19
Iteration:  2293charge 0 multiplicity 1
 C        -1.682654        -1.882520        -0.749526
 C        -1.211820        -0.424299        -0.979597
 C        -2.161935         0.438223        -1.856782
 C        -0.598541         0.251418        -2.150587
 C         0.345349         1.406196        -1.562969
 C         0.354971         1.043022        -0.023121
 O        -0.785461         0.191308         0.244366
 C         1.510849         0.151815         0.454126
 O         2.699332         0.317814         0.226375
 H        -2.607352        -1.912734        -0.356271
 H        -1.582906        -2.467850        -1.644444
 H        -0.893747        -2.327724        -0.038225
 H        -2.927298        -0.052286        -2.430579
 H        -2.616382         1.295858        -1.351051
 H        -0.494493        -0.257568        -3.132147
 H         1.482486         1.319162        -1.820686
 H        -0.038437         2.433781        -1.853404
 H         0.206158         2.065168         0.452327
 H         1.188574        -0.564744         1.253491
