19
Iteration:  3634
 C        -2.117167        -1.723218        -0.916499
 C        -1.321050        -0.489902        -1.114745
 C        -2.041020         0.592175        -1.872456
 C        -0.615776         0.147603        -2.255176
 C         0.624601         0.903625        -1.687891
 C         0.374906         0.792896        -0.188149
 O        -0.574091        -0.245574         0.100140
 C         1.496548         0.616570         0.839534
 O         2.680475         0.852714         0.667920
 H        -2.737935        -2.120460        -1.812096
 H        -1.418178        -2.523987        -0.775881
 H        -2.721637        -1.703328         0.051110
 H        -2.898226         0.328448        -2.490023
 H        -2.202250         1.607811        -1.436723
 H        -0.512694        -0.317897        -3.267349
 H         1.360752         0.237767        -2.029001
 H         0.771784         1.896800        -2.042073
 H        -0.240788         1.773690         0.129610
 H         1.109035         0.513527         1.927641
