19
Iteration:    60charge 0 multiplicity 1
 C        -1.833049        -1.844015        -0.940370
 C        -1.491192        -0.337891        -0.975552
 C        -2.152978         0.679291        -1.785493
 C        -0.738607         0.210934        -2.178163
 C         0.478413         0.965639        -1.588206
 C         0.350847         0.904126        -0.040715
 O        -0.664468        -0.106312         0.218084
 C         1.705560         0.487233         0.768819
 O         2.736141         0.525976         0.180161
 H        -2.475479        -2.126977        -0.039090
 H        -2.481130        -2.222870        -1.853199
 H        -0.940725        -2.552537        -0.907739
 H        -3.093348         0.435198        -2.368393
 H        -2.165764         1.735820        -1.552597
 H        -0.583138        -0.460608        -3.037357
 H         1.468300         0.619850        -2.032300
 H         0.507725         2.223740        -1.884860
 H         0.160081         1.928098         0.512254
 H         1.642010         0.400643         1.858516
