19
Iteration:  4481
 C        -2.197422        -1.749318        -0.875849
 C        -1.382746        -0.486019        -1.072118
 C        -1.908462         0.742101        -1.839837
 C        -0.612057         0.087304        -2.221719
 C         0.624992         0.692648        -1.734283
 C         0.396888         0.829492        -0.231362
 O        -0.563152        -0.220711         0.091631
 C         1.649767         0.431125         0.479701
 O         2.433270         1.147222         0.979591
 H        -3.315607        -1.574410        -0.849879
 H        -1.912474        -2.716373        -1.362294
 H        -1.951662        -2.090912         0.090492
 H        -2.791177         0.330739        -2.350158
 H        -1.796402         1.789542        -1.568534
 H        -0.506730        -0.294111        -3.228741
 H         1.453578        -0.091442        -1.903096
 H         0.942278         1.544364        -2.314214
 H         0.203543         1.939455         0.067807
 H         1.910100        -0.729506         0.437476
