19
Iteration:  2396charge 0 multiplicity 1
 C        -1.650808        -1.906060        -0.766892
 C        -1.287558        -0.441730        -0.969527
 C        -2.092306         0.565304        -1.841405
 C        -0.595790         0.222240        -2.151373
 C         0.385087         1.227470        -1.545346
 C         0.290651         1.049640        -0.007948
 O        -0.798159         0.131732         0.198530
 C         1.509026         0.300148         0.555292
 O         2.705539         0.338975         0.163247
 H        -2.065859        -2.019253         0.305119
 H        -2.401366        -1.963592        -1.534258
 H        -0.835265        -2.540597        -0.907131
 H        -2.787487         0.051517        -2.535873
 H        -2.421592         1.539414        -1.387013
 H        -0.314501        -0.318901        -3.088828
 H         1.453764         1.104531        -1.835412
 H         0.026756         2.265205        -1.865843
 H        -0.115872         1.983431         0.554540
 H         1.256250        -0.356027         1.420096
