19
Iteration:  3357charge 0 multiplicity 1
 C        -1.746287        -1.890531        -0.860111
 C        -1.315775        -0.465996        -1.060354
 C        -2.091943         0.526483        -1.940484
 C        -0.636322         0.184534        -2.147956
 C         0.420789         1.171452        -1.570350
 C         0.360270         1.013722        -0.048005
 O        -0.799166         0.101366         0.234824
 C         1.547667         0.350288         0.628350
 O         2.722605         0.465949         0.377475
 H        -2.505555        -2.180374        -1.637563
 H        -0.885145        -2.708699        -0.789313
 H        -2.333007        -1.777924         0.057094
 H        -2.786784         0.193111        -2.741147
 H        -2.216627         1.562919        -1.611911
 H        -0.278549        -0.514770        -2.926472
 H         1.450851         1.197608        -1.936664
 H        -0.091391         2.073369        -1.755677
 H         0.218136         2.198697         0.278924
 H         1.205151        -0.317633         1.449225
