19
Iteration:   742charge 0 multiplicity 1
 C        -1.539017        -1.864472        -0.701003
 C        -1.223524        -0.396177        -0.909870
 C        -2.001902         0.463135        -1.972611
 C        -0.559174         0.281775        -2.037366
 C         0.231976         1.446364        -1.550495
 C         0.240170         1.095305        -0.044588
 O        -0.811061         0.251097         0.361189
 C         1.457746         0.093726         0.444020
 O         2.648769         0.131377         0.040906
 H        -2.461106        -2.015723        -0.186627
 H        -1.469287        -2.412043        -1.675475
 H        -0.777187        -2.215880        -0.132800
 H        -2.647288        -0.158553        -2.696053
 H        -2.473087         1.470176        -1.851501
 H        -0.235009        -0.302881        -2.875021
 H         1.275833         1.728510        -1.818167
 H        -0.385298         2.500901        -1.748752
 H         0.328492         1.918955         0.766467
 H         1.173016        -0.590300         1.236175
