19
Iteration:  3435charge 0 multiplicity 1
 C        -1.745659        -1.811280        -0.881742
 C        -1.390508        -0.412481        -1.050323
 C        -2.131734         0.557483        -2.004551
 C        -0.562214         0.160864        -2.181715
 C         0.550293         1.062880        -1.582567
 C         0.330412         0.767860        -0.041345
 O        -0.921495         0.114583         0.270084
 C         1.589990         0.354483         0.661281
 O         2.730015         0.648844         0.348183
 H        -2.658234        -1.875121        -0.122432
 H        -2.156620        -2.385836        -1.805199
 H        -1.004312        -2.448025        -0.364059
 H        -2.878318         0.198817        -2.672876
 H        -2.380110         1.474400        -1.488203
 H        -0.174855        -0.400043        -2.995277
 H         1.567280         0.919388        -1.853047
 H         0.403747         2.101178        -1.761427
 H         0.201836         1.696914         0.661784
 H         1.463205        -0.164236         1.670231
