19
Iteration:  3856
 C        -2.159584        -1.780871        -1.034405
 C        -1.388656        -0.399695        -0.960840
 C        -1.847809         0.821118        -1.779844
 C        -0.689681         0.017177        -2.215989
 C         0.681977         0.369144        -1.849246
 C         0.482915         0.699288        -0.376487
 O        -0.586737        -0.081848         0.221273
 C         1.651857         0.509343         0.451510
 O         2.311928         1.285193         1.148246
 H        -2.071717        -2.207674        -0.053428
 H        -3.255280        -1.740307        -1.399858
 H        -1.541913        -2.572432        -1.723225
 H        -2.781544         0.897924        -2.272392
 H        -1.529531         1.768407        -1.353340
 H        -0.925859        -0.554651        -3.159115
 H         1.362227        -0.594577        -2.125331
 H         1.227709         1.285401        -2.317671
 H         0.232266         1.752279        -0.579865
 H         1.912323        -0.605545         0.483490
