19
Iteration:  2218
 C        -1.428267        -1.827040        -0.741451
 C        -1.380486        -0.360202        -0.968866
 C        -2.176296         0.457456        -2.008952
 C        -0.623692         0.275951        -2.067118
 C         0.415528         1.267581        -1.443294
 C         0.327052         0.897164         0.026674
 O        -0.983563         0.372908         0.297348
 C         1.563124         0.002983         0.380508
 O         2.702484         0.416186         0.184597
 H        -2.038123        -1.966054         0.150716
 H        -1.979659        -2.293863        -1.598078
 H        -0.383396        -2.338552        -0.640255
 H        -2.861089        -0.070714        -2.644834
 H        -2.546795         1.452555        -1.694173
 H        -0.408601        -0.291300        -3.017509
 H         1.382268         0.909224        -1.911455
 H         0.030085         2.230645        -1.793446
 H         0.486041         1.667186         0.676214
 H         1.453258        -0.995258         0.826369
