19
Iteration:  4657
 C        -2.139138        -1.734861        -0.973476
 C        -1.359274        -0.452248        -1.060215
 C        -1.903747         0.638361        -1.880809
 C        -0.552362         0.076625        -2.236211
 C         0.738031         0.720668        -1.606511
 C         0.312064         0.922146        -0.180353
 O        -0.692423        -0.201405         0.130515
 C         1.478978         0.563392         0.752826
 O         2.590405         1.015696         0.636720
 H        -1.694513        -2.414058        -0.050849
 H        -3.234689        -1.676999        -0.658559
 H        -2.069627        -2.529725        -1.696836
 H        -2.561352         0.304163        -2.661683
 H        -2.101842         1.582562        -1.392154
 H        -0.369024        -0.613207        -3.040901
 H         1.582824        -0.049069        -1.637329
 H         1.041011         1.660256        -1.996982
 H        -0.188668         1.859382        -0.050059
 H         1.346241        -0.459994         1.326974
