19
Iteration:  1545
 C        -1.589144        -1.889075        -0.810797
 C        -1.271927        -0.440378        -0.980607
 C        -2.112320         0.452083        -1.811790
 C        -0.537079         0.218985        -2.053888
 C         0.293125         1.355764        -1.571068
 C         0.331474         1.035186        -0.058832
 O        -0.852206         0.291784         0.294400
 C         1.518323         0.177586         0.458359
 O         2.658410         0.276301         0.184605
 H        -2.407832        -2.014035        -0.256612
 H        -1.619481        -2.315080        -1.836222
 H        -0.687277        -2.290021        -0.338990
 H        -2.751598        -0.171567        -2.466362
 H        -2.525782         1.436756        -1.486811
 H        -0.231592        -0.340334        -2.987535
 H         1.280552         1.301805        -2.072251
 H        -0.128800         2.403043        -1.719926
 H         0.453921         2.089481         0.489829
 H         1.135123        -0.626661         1.148042
