19
Iteration:  1688
 C        -1.417364        -1.899476        -0.762237
 C        -1.298122        -0.391456        -1.002553
 C        -2.060568         0.463625        -1.899511
 C        -0.561494         0.264423        -2.046141
 C         0.367002         1.349942        -1.447363
 C         0.311297         1.030896         0.042387
 O        -0.910287         0.300960         0.255677
 C         1.440818         0.223544         0.592279
 O         2.534158         0.170522        -0.075607
 H        -1.874569        -1.990606         0.129297
 H        -1.920776        -2.456824        -1.566824
 H        -0.400400        -2.365774        -0.645056
 H        -2.746779        -0.046844        -2.575723
 H        -2.371755         1.408074        -1.516614
 H        -0.281131        -0.388732        -2.876914
 H         1.352913         1.204686        -1.860609
 H         0.159422         2.341698        -1.804269
 H         0.135056         1.893104         0.691392
 H         1.582609        -0.157139         1.603424
