19
Iteration:  1331charge 0 multiplicity 1
 C        -1.607625        -1.904887        -0.878088
 C        -1.356124        -0.381696        -0.931940
 C        -2.093585         0.590003        -1.870464
 C        -0.619253         0.174582        -2.050914
 C         0.467987         1.123077        -1.522453
 C         0.317306         1.004437         0.042554
 O        -0.916146         0.209021         0.300093
 C         1.490426         0.213888         0.518641
 O         2.681953         0.475599         0.051716
 H        -1.985214        -2.117301         0.168658
 H        -2.273378        -2.452278        -1.720990
 H        -0.540591        -2.368717        -0.852071
 H        -2.713130         0.199548        -2.636852
 H        -2.114788         1.584938        -1.536107
 H        -0.210100        -0.441819        -2.861390
 H         1.545506         0.720360        -1.683681
 H         0.371178         2.225815        -1.851938
 H         0.309312         1.971489         0.601109
 H         1.166721        -0.617095         1.245373
