19
Iteration:  3062charge 0 multiplicity 1
 C        -1.399139        -1.912196        -0.818700
 C        -1.179600        -0.334502        -0.882652
 C        -2.103985         0.356327        -1.827376
 C        -0.555152         0.312219        -2.143451
 C         0.266144         1.410912        -1.498419
 C         0.333420         1.093708        -0.002369
 O        -0.898344         0.419655         0.275846
 C         1.409954         0.171131         0.486785
 O         2.543642         0.005178         0.025686
 H        -2.363811        -2.339801        -1.011210
 H        -0.725374        -2.423447        -1.490254
 H        -1.012327        -1.992194         0.190667
 H        -2.729424        -0.362662        -2.417513
 H        -2.566391         1.253211        -1.402927
 H         0.093043        -0.261622        -2.787597
 H         1.295829         1.494255        -1.951178
 H        -0.170584         2.450115        -1.735232
 H         0.393034         2.041524         0.722673
 H         1.198778        -0.345753         1.475505
