19
Iteration:  4715
 C        -1.912031        -1.821037        -1.016555
 C        -1.439104        -0.405470        -0.970787
 C        -1.967974         0.606386        -2.034162
 C        -0.515157        -0.074061        -2.195897
 C         0.639587         0.774375        -1.608147
 C         0.288144         0.890836        -0.186428
 O        -0.797035         0.110382         0.187060
 C         1.491486         0.495647         0.813557
 O         2.634048         0.874128         0.641552
 H        -1.055230        -2.476134        -1.511337
 H        -1.881243        -2.262884        -0.063118
 H        -2.958534        -2.006036        -1.484786
 H        -2.818679         0.339268        -2.655668
 H        -2.086517         1.642506        -1.722842
 H        -0.370008        -0.759930        -3.042394
 H         1.563938         0.199984        -1.662338
 H         0.884895         1.776777        -2.107891
 H         0.205705         1.929119        -0.025126
 H         1.109888        -0.234853         1.605740
