19
Iteration:  3333charge 0 multiplicity 1
 C        -1.730914        -1.841142        -0.763696
 C        -1.349750        -0.423513        -1.067507
 C        -2.094186         0.478856        -1.927655
 C        -0.670426         0.257091        -2.228105
 C         0.383375         1.286290        -1.626015
 C         0.329977         0.857901        -0.051496
 O        -0.804163         0.115402         0.160374
 C         1.605390         0.325769         0.697986
 O         2.744946         0.418434         0.401786
 H        -1.707456        -2.338861        -1.710271
 H        -0.776788        -2.317880        -0.237400
 H        -2.738436        -2.019435        -0.278150
 H        -2.720122        -0.149570        -2.606362
 H        -2.537120         1.431120        -1.546316
 H        -0.385869        -0.220663        -3.203613
 H         1.443407         0.937812        -1.835107
 H         0.108616         2.302789        -1.909222
 H         0.260859         2.052667         0.397306
 H         1.328417        -0.031537         1.725172
