19
Iteration:  4471
 C        -2.138231        -1.778993        -0.774053
 C        -1.360376        -0.458935        -1.081173
 C        -1.881967         0.733931        -1.810297
 C        -0.645618         0.043050        -2.294480
 C         0.654126         0.703231        -1.765055
 C         0.377257         0.805865        -0.229506
 O        -0.593091        -0.171172         0.036292
 C         1.611023         0.413908         0.440749
 O         2.452630         1.130701         1.027242
 H        -3.260425        -1.672108        -0.966372
 H        -1.794904        -2.430989        -1.580057
 H        -1.847065        -1.948003         0.212368
 H        -2.770006         0.854232        -2.443020
 H        -1.774417         1.651911        -1.232009
 H        -0.652982        -0.641210        -3.160413
 H         1.541653        -0.018200        -1.931729
 H         0.820712         1.694952        -2.110612
 H        -0.062119         1.871099         0.103007
 H         1.663706        -0.762321         0.468380
