19
Iteration:  4688charge 0 multiplicity 1
 C        -1.971565        -1.824856        -0.890277
 C        -1.334647        -0.494982        -1.086952
 C        -1.880058         0.692873        -2.034178
 C        -0.559947         0.092872        -2.284391
 C         0.639043         0.720736        -1.603685
 C         0.336329         0.775735        -0.121346
 O        -0.851793        -0.012439         0.158813
 C         1.505047         0.491788         0.861845
 O         2.581184         0.980654         0.572203
 H        -1.166225        -2.603179        -0.602404
 H        -2.487689        -1.847514         0.149201
 H        -2.606908        -2.170212        -1.654627
 H        -2.628495         0.665955        -2.832598
 H        -2.004716         1.602453        -1.409955
 H        -0.423520        -0.589263        -3.174458
 H         1.538996         0.071141        -1.790579
 H         0.824696         1.724969        -1.877524
 H         0.200470         1.946441        -0.009513
 H         1.277432        -0.245264         1.611991
