19
Iteration:  2531
 C        -1.731115        -1.857204        -0.798465
 C        -1.421034        -0.437645        -0.970001
 C        -2.079234         0.511729        -1.923971
 C        -0.640332         0.268258        -2.114515
 C         0.434253         1.232996        -1.486348
 C         0.384172         0.931731        -0.008345
 O        -0.846930         0.091666         0.233770
 C         1.597928         0.322791         0.535523
 O         2.766087         0.437306         0.145970
 H        -2.304974        -1.971795         0.227445
 H        -2.414033        -2.205053        -1.551989
 H        -0.950675        -2.603043        -0.830472
 H        -2.886740         0.164177        -2.541233
 H        -2.429971         1.427709        -1.454879
 H        -0.121445        -0.304556        -2.846939
 H         1.447005         1.170099        -1.886447
 H         0.041271         2.222377        -1.805707
 H         0.098400         1.868854         0.640039
 H         1.291848        -0.419327         1.354259
