19
Iteration:   666
 C        -1.333071        -1.728724        -0.628434
 C        -1.373321        -0.342123        -1.023504
 C        -2.110882         0.589515        -1.955513
 C        -0.573959         0.224624        -2.129771
 C         0.326565         1.198640        -1.453926
 C         0.264150         0.942212         0.111026
 O        -0.917814         0.245219         0.261650
 C         1.504756         0.135565         0.526338
 O         2.615956         0.232345        -0.051637
 H        -2.141394        -1.769512         0.126734
 H        -1.734042        -2.385023        -1.507100
 H        -0.378649        -2.119438        -0.409407
 H        -2.556378         0.037392        -2.837816
 H        -2.524996         1.599706        -1.726803
 H        -0.429509        -0.466252        -2.969123
 H         1.370721         1.180078        -1.818739
 H         0.190662         2.414925        -1.674212
 H         0.206928         1.760697         0.898207
 H         1.373779        -0.647810         1.386232
