19
Iteration:  2795
 C        -1.655631        -1.914271        -0.751622
 C        -1.244326        -0.424395        -0.905183
 C        -2.064453         0.464089        -1.904910
 C        -0.538652         0.202310        -2.116153
 C         0.411300         1.394796        -1.534020
 C         0.290797         1.055199         0.039249
 O        -0.881440         0.225808         0.240878
 C         1.496313         0.224511         0.524702
 O         2.681789         0.294048         0.067211
 H        -2.525860        -2.057812        -0.139433
 H        -1.765566        -2.396728        -1.789704
 H        -0.934664        -2.480901        -0.262649
 H        -2.748254        -0.084541        -2.576293
 H        -2.471055         1.435337        -1.564795
 H        -0.435521        -0.362380        -3.025357
 H         1.520271         1.277580        -1.805059
 H        -0.127324         2.419655        -1.771198
 H         0.060243         1.869050         0.605758
 H         1.288434        -0.477634         1.361853
