19
Iteration:  4966
 C        -1.608883        -1.762857        -0.730041
 C        -1.296934        -0.357393        -1.023763
 C        -1.838135         0.332390        -2.312824
 C        -0.386008         0.044397        -2.276602
 C         0.591533         0.966435        -1.589109
 C         0.237023         1.028991        -0.040642
 O        -0.970154         0.312299         0.147206
 C         1.266740         0.517792         0.877616
 O         2.477066         0.424508         0.541866
 H        -0.542451        -2.206614        -0.416997
 H        -2.377805        -1.838050         0.003428
 H        -1.924049        -2.414719        -1.624075
 H        -2.575884        -0.284296        -2.896107
 H        -2.169546         1.386431        -2.414517
 H         0.019154        -0.825959        -2.819554
 H         1.567931         0.504772        -1.632389
 H         0.506714         2.044375        -1.969560
 H         0.055144         2.020521         0.261819
 H         0.742127         0.081722         1.825174
