19
Iteration:  3497
 C        -1.758001        -1.950291        -0.878442
 C        -1.298923        -0.448338        -1.012262
 C        -2.018630         0.613276        -1.750884
 C        -0.628160         0.190004        -2.215804
 C         0.508510         1.047843        -1.708316
 C         0.317198         0.930553        -0.159997
 O        -0.709460         0.085469         0.145851
 C         1.404984         0.448343         0.721016
 O         2.640214         0.542786         0.493836
 H        -1.434363        -2.249678         0.044332
 H        -2.867258        -1.926741        -0.952161
 H        -1.328567        -2.497282        -1.643566
 H        -2.877972         0.357921        -2.412231
 H        -2.122027         1.658374        -1.312112
 H        -0.366196        -0.268392        -3.171315
 H         1.514529         0.566717        -2.026237
 H         0.355032         2.058016        -2.195610
 H        -0.016054         1.949791         0.207838
 H         0.939923        -0.191918         1.481689
