19
Iteration:    50
 C        -1.866621        -1.824271        -0.940996
 C        -1.367422        -0.393431        -0.959494
 C        -2.089201         0.749372        -1.755247
 C        -0.703316         0.195549        -2.184094
 C         0.478935         0.973724        -1.591462
 C         0.324036         0.854269        -0.028992
 O        -0.742715        -0.116409         0.246231
 C         1.624486         0.522865         0.681808
 O         2.755195         0.557156         0.162206
 H        -2.373574        -2.074087         0.037613
 H        -2.496682        -2.105937        -1.842061
 H        -0.898372        -2.401781        -0.985878
 H        -3.059376         0.281364        -2.103683
 H        -2.102104         1.751347        -1.308699
 H        -0.498192        -0.414672        -3.079627
 H         1.392679         0.306663        -1.766321
 H         0.646446         2.129910        -2.048519
 H        -0.122690         1.852833         0.395045
 H         1.514025         0.168015         1.697893
