19
Iteration:  4616
 C        -2.190071        -1.747856        -1.073899
 C        -1.480111        -0.482784        -1.076237
 C        -1.905400         0.752929        -1.821447
 C        -0.600261        -0.042801        -2.216391
 C         0.646410         0.635297        -1.759407
 C         0.383735         0.665697        -0.211798
 O        -0.654075        -0.218083         0.120298
 C         1.626841         0.610287         0.891242
 O         2.650314         1.212466         0.749824
 H        -2.489949        -2.065886        -0.017972
 H        -3.137054        -1.686786        -1.486333
 H        -1.490228        -2.450933        -1.616515
 H        -2.837413         0.866191        -2.333198
 H        -1.658142         1.623071        -1.264580
 H        -0.644793        -0.651863        -3.057804
 H         1.516374         0.005983        -2.056285
 H         0.633989         1.692561        -2.110455
 H        -0.032902         1.742363        -0.136527
 H         1.443893        -0.179096         1.579400
