19
Iteration:  1662charge 0 multiplicity 1
 C        -1.530689        -1.946413        -0.773392
 C        -1.208095        -0.397848        -0.933573
 C        -1.982801         0.380131        -1.827831
 C        -0.528774         0.327269        -2.140055
 C         0.288836         1.439226        -1.515574
 C         0.316851         1.172699        -0.014739
 O        -0.887763         0.252488         0.327119
 C         1.472468         0.206243         0.425474
 O         2.559374         0.120331         0.079122
 H        -2.015677        -2.018917         0.354268
 H        -2.130826        -2.375387        -1.606929
 H        -0.724182        -2.665296        -0.855001
 H        -2.673051        -0.068597        -2.546936
 H        -2.247156         1.407570        -1.470583
 H        -0.139937        -0.442627        -2.848980
 H         1.248572         1.575503        -2.018645
 H        -0.242533         2.370607        -1.715342
 H         0.080401         2.030994         0.496248
 H         1.170344        -0.472077         1.256995
