19
Iteration:  3284charge 0 multiplicity 1
 C        -1.515827        -1.939446        -0.898477
 C        -1.319685        -0.368378        -0.898295
 C        -2.041240         0.556084        -1.834327
 C        -0.560638         0.187247        -2.121243
 C         0.485983         1.098848        -1.626005
 C         0.278635         1.052059        -0.047353
 O        -0.923612         0.261055         0.294533
 C         1.429864         0.262552         0.552462
 O         2.619984         0.388857         0.250779
 H        -0.760910        -2.385532        -1.633371
 H        -1.384557        -2.346707         0.089624
 H        -2.541399        -2.171866        -1.104487
 H        -2.635070         0.229226        -2.694413
 H        -2.311718         1.445313        -1.311471
 H        -0.392904        -0.290784        -3.090966
 H         1.512457         0.827025        -1.941940
 H         0.118477         2.146137        -1.914852
 H         0.054370         2.017921         0.289413
 H         1.116683        -0.567121         1.264755
