19
Iteration:  1218charge 0 multiplicity 1
 C        -1.642064        -1.881869        -0.833539
 C        -1.340668        -0.430821        -0.935188
 C        -2.170819         0.513767        -1.897295
 C        -0.661877         0.230692        -2.104939
 C         0.395624         1.202382        -1.548278
 C         0.384817         0.912167         0.022388
 O        -0.887669         0.342360         0.244623
 C         1.592344         0.057045         0.386870
 O         2.762772         0.516804         0.269645
 H        -2.535511        -1.924784        -0.135993
 H        -1.761973        -2.515061        -1.778358
 H        -0.794268        -2.421990        -0.227741
 H        -2.995170         0.023135        -2.452838
 H        -2.553127         1.445905        -1.385449
 H        -0.372049        -0.311654        -3.023913
 H         1.400742         1.112499        -1.872166
 H         0.029552         2.209790        -1.687847
 H         0.441302         1.814725         0.632861
 H         1.458951        -0.923873         0.814348
