19
Iteration:  3418charge 0 multiplicity 1
 C        -1.800773        -1.914382        -0.855805
 C        -1.407944        -0.415926        -1.024418
 C        -1.989254         0.582109        -1.958649
 C        -0.576299         0.208161        -2.150795
 C         0.506177         1.036499        -1.458047
 C         0.298406         0.902875         0.038671
 O        -0.941565         0.125325         0.180780
 C         1.591990         0.272138         0.653518
 O         2.713344         0.682662         0.246507
 H        -2.802771        -2.075162        -0.603320
 H        -1.554109        -2.493244        -1.704585
 H        -1.107462        -2.326825        -0.063633
 H        -2.704061         0.137970        -2.687035
 H        -2.113088         1.653578        -1.755809
 H        -0.267869        -0.459128        -3.016389
 H         1.490235         0.546795        -1.769608
 H         0.531773         2.108636        -1.891031
 H         0.151222         1.888198         0.433125
 H         1.560737        -0.471386         1.481358
