19
Iteration:  1647charge 0 multiplicity 1
 C        -1.540813        -1.890751        -0.787708
 C        -1.208353        -0.454818        -0.923837
 C        -2.082123         0.393681        -1.915900
 C        -0.517061         0.231455        -2.047143
 C         0.238742         1.521185        -1.550733
 C         0.272055         1.108564        -0.011150
 O        -0.814959         0.281652         0.289817
 C         1.475384         0.186183         0.449821
 O         2.636515         0.131752         0.102398
 H        -2.093875        -1.990852         0.155586
 H        -2.279990        -2.185046        -1.534265
 H        -0.566314        -2.468258        -0.626064
 H        -2.802402        -0.200094        -2.494781
 H        -2.514610         1.303457        -1.560544
 H        -0.083410        -0.182245        -2.917009
 H         1.370485         1.511028        -1.873231
 H        -0.210017         2.559715        -1.805832
 H         0.424372         1.974962         0.820949
 H         0.965218        -0.602593         1.185867
