19
Iteration:  4835
 C        -1.888000        -1.849525        -0.922866
 C        -1.260334        -0.468480        -1.009230
 C        -1.874199         0.389265        -2.048076
 C        -0.366318         0.004353        -2.169372
 C         0.659083         0.923214        -1.652242
 C         0.300189         0.941410        -0.065747
 O        -0.983650         0.356768         0.156218
 C         1.356425         0.454112         0.783828
 O         2.568020         0.703391         0.576940
 H        -3.007540        -2.145995        -0.939237
 H        -1.628145        -2.353497        -1.792382
 H        -1.477155        -2.598864        -0.128574
 H        -2.522423        -0.041902        -2.810764
 H        -2.129990         1.444092        -1.812515
 H        -0.218677        -0.807735        -2.986212
 H         1.652983         0.533107        -1.856388
 H         0.804171         1.951667        -2.091753
 H         0.159563         2.078162         0.303446
 H         0.897661        -0.250194         1.592865
