19
Iteration:  3698
 C        -2.002838        -1.793063        -1.008676
 C        -1.393011        -0.461699        -1.025859
 C        -1.977630         0.822682        -1.792830
 C        -0.620688         0.184988        -2.224540
 C         0.753022         0.484008        -1.690938
 C         0.316978         0.673865        -0.182789
 O        -0.757475        -0.133083         0.238855
 C         1.589349         0.452056         0.658156
 O         2.531605         1.188742         0.689937
 H        -3.084447        -1.907693        -1.297009
 H        -1.568983        -2.148940        -1.937300
 H        -1.662635        -2.370966        -0.183372
 H        -2.843660         0.668610        -2.428260
 H        -2.023436         1.868472        -1.408287
 H        -0.754171        -0.126224        -3.287891
 H         1.593178        -0.324520        -1.810670
 H         1.182966         1.446669        -2.020505
 H         0.156803         1.706167        -0.141241
 H         1.640723        -0.555785         1.077500
