19
Iteration:  3203charge 0 multiplicity 1
 C        -1.620972        -1.865183        -0.785092
 C        -1.237759        -0.418561        -0.935564
 C        -2.003869         0.418143        -1.996267
 C        -0.545615         0.224918        -2.103839
 C         0.307821         1.393057        -1.453908
 C         0.317913         1.057994         0.001033
 O        -0.868513         0.240587         0.241508
 C         1.532598         0.204263         0.519145
 O         2.644502         0.236453         0.133404
 H        -1.043360        -2.064562         0.175725
 H        -2.814670        -1.787831        -0.441588
 H        -1.327419        -2.604936        -1.613659
 H        -2.610077        -0.260816        -2.597516
 H        -2.483902         1.357906        -1.644531
 H        -0.169169        -0.347259        -2.941800
 H         1.180018         1.744844        -1.994108
 H        -0.330305         2.264912        -1.598242
 H         0.099610         1.882601         0.614716
 H         1.094025        -0.511280         1.283127
