19
Iteration:  4422charge 0 multiplicity 1
 C        -1.924367        -1.825786        -0.875411
 C        -1.404236        -0.351378        -1.016230
 C        -2.173477         0.614273        -1.862554
 C        -0.718553         0.083187        -2.247529
 C         0.664980         0.643102        -1.859489
 C         0.521378         0.867602        -0.352968
 O        -0.609732         0.100121         0.123440
 C         1.685990         0.292177         0.561643
 O         2.417633         1.009856         1.122948
 H        -2.928583        -1.691347        -1.184242
 H        -1.414516        -2.439294        -1.620206
 H        -2.030915        -2.032833         0.258987
 H        -3.043708         0.313180        -2.462742
 H        -2.326759         1.658797        -1.537317
 H        -0.701328        -0.474461        -3.227992
 H         1.437408        -0.062234        -2.011630
 H         0.910524         1.602059        -2.454156
 H         0.477343         1.885970        -0.176148
 H         1.881305        -0.893679         0.525547
