19
Iteration:  1080
 C        -1.449384        -1.897264        -0.718992
 C        -1.398167        -0.364772        -0.957549
 C        -2.126305         0.649989        -1.858699
 C        -0.699062         0.247903        -2.138804
 C         0.346499         1.167502        -1.556014
 C         0.361359         0.803606        -0.079920
 O        -0.951238         0.321469         0.205056
 C         1.571890         0.057003         0.527797
 O         2.727613         0.477805         0.185341
 H        -2.272247        -2.229591        -0.138633
 H        -1.403152        -2.438715        -1.699397
 H        -0.545980        -2.181102        -0.243246
 H        -2.877000         0.278287        -2.540882
 H        -2.461402         1.556055        -1.374894
 H        -0.356811        -0.349428        -3.003152
 H         1.419895         0.870255        -1.842363
 H         0.172884         2.205057        -1.788984
 H         0.276990         1.771228         0.595637
 H         1.342848        -0.744866         1.362168
