19
Iteration:  3375charge 0 multiplicity 1
 C        -1.804716        -1.883595        -0.896614
 C        -1.324365        -0.421070        -0.907425
 C        -1.933055         0.521963        -1.874295
 C        -0.504372         0.135122        -2.153966
 C         0.418752         1.149505        -1.629328
 C         0.249331         1.010472        -0.055862
 O        -0.829132         0.133605         0.235595
 C         1.535561         0.282617         0.599260
 O         2.651719         0.551032         0.310267
 H        -2.640930        -1.915979        -1.509431
 H        -0.964071        -2.427316        -1.323615
 H        -1.976873        -2.209451         0.176890
 H        -2.820577         0.085514        -2.390177
 H        -2.157991         1.573351        -1.556898
 H        -0.235342        -0.401935        -3.114445
 H         1.480129         0.766180        -1.847438
 H         0.312730         2.280510        -1.908688
 H         0.081087         1.718091         0.604529
 H         1.123205        -0.473687         1.348970
