19
Iteration:   533charge 0 multiplicity 1
 C        -1.568459        -1.901438        -0.803246
 C        -1.239138        -0.367918        -0.989368
 C        -2.096662         0.434523        -1.798851
 C        -0.504645         0.306313        -2.022854
 C         0.463894         1.247790        -1.551114
 C         0.290407         1.024678         0.026846
 O        -0.884082         0.274749         0.283630
 C         1.462981         0.255992         0.559963
 O         2.529832         0.242511        -0.064360
 H        -2.198740        -1.962491         0.110043
 H        -2.098516        -2.240450        -1.659914
 H        -0.727352        -2.600445        -0.604914
 H        -2.726314         0.069451        -2.547717
 H        -2.473721         1.288027        -1.376055
 H        -0.241217        -0.322895        -2.864126
 H         1.504370         0.989613        -1.798585
 H         0.407404         2.350856        -1.819169
 H         0.207092         1.906012         0.689217
 H         1.314822        -0.267466         1.488239
