19
Iteration:  3417charge 0 multiplicity 1
 C        -1.793853        -1.909545        -0.860008
 C        -1.411340        -0.423252        -1.015471
 C        -1.978220         0.585117        -1.963263
 C        -0.582898         0.206067        -2.145249
 C         0.505251         1.027200        -1.460832
 C         0.296858         0.912968         0.043863
 O        -0.936197         0.127207         0.174784
 C         1.596308         0.267047         0.649633
 O         2.703314         0.681319         0.244935
 H        -2.824378        -2.095233        -0.631048
 H        -1.553102        -2.477969        -1.674549
 H        -1.139663        -2.344063        -0.040844
 H        -2.677460         0.146989        -2.679100
 H        -2.118314         1.633630        -1.738094
 H        -0.254990        -0.401873        -3.016734
 H         1.475748         0.571490        -1.766569
 H         0.519171         2.068034        -1.907805
 H         0.132315         1.943859         0.477600
 H         1.582472        -0.474009         1.470335
