19
Iteration:  1732
 C        -1.352486        -1.890783        -0.811659
 C        -1.299543        -0.359900        -0.937782
 C        -2.131846         0.453736        -1.865208
 C        -0.631699         0.297362        -2.061311
 C         0.388159         1.290509        -1.477976
 C         0.321341         1.052792         0.023891
 O        -0.946452         0.318404         0.257104
 C         1.487116         0.260867         0.585824
 O         2.549285         0.117505        -0.060291
 H        -2.228168        -2.211943        -0.326867
 H        -1.103961        -2.441742        -1.747940
 H        -0.532985        -2.371776        -0.215844
 H        -2.763122         0.006224        -2.625059
 H        -2.399686         1.429617        -1.511042
 H        -0.182978        -0.416216        -2.720382
 H         1.411343         1.166244        -1.812868
 H         0.173394         2.315325        -1.751480
 H         0.341374         1.910808         0.586230
 H         1.259584        -0.131922         1.688809
