19
Iteration:  1849
 C        -1.408024        -1.918178        -0.768612
 C        -1.262293        -0.441099        -0.888638
 C        -1.988585         0.485812        -1.966366
 C        -0.519675         0.256034        -2.035218
 C         0.422279         1.261978        -1.460614
 C         0.250574         1.049253         0.095796
 O        -0.944160         0.350073         0.310559
 C         1.442335         0.154987         0.475205
 O         2.504710         0.281602        -0.065139
 H        -2.001042        -2.179110         0.162222
 H        -1.973053        -2.098476        -1.671986
 H        -0.601129        -2.510834        -0.844172
 H        -2.840190         0.104148        -2.481856
 H        -2.303821         1.467839        -1.652420
 H        -0.266145        -0.391768        -2.826390
 H         1.406829         1.101326        -1.824786
 H         0.072519         2.235801        -1.837191
 H         0.346048         2.068304         0.648175
 H         0.952203        -0.602001         1.170763
