19
Iteration:    55charge 0 multiplicity 1
 C        -1.854281        -1.839373        -0.941844
 C        -1.430974        -0.354518        -0.961114
 C        -2.129968         0.720193        -1.776741
 C        -0.715861         0.198825        -2.193810
 C         0.489069         0.997031        -1.602243
 C         0.335573         0.889509        -0.030098
 O        -0.712333        -0.118770         0.231141
 C         1.655614         0.505839         0.727670
 O         2.754253         0.543570         0.165739
 H        -2.370691        -2.115317        -0.051392
 H        -2.423634        -2.188325        -1.772094
 H        -0.984353        -2.466226        -0.956352
 H        -3.051877         0.317040        -2.130569
 H        -2.083493         1.761406        -1.427325
 H        -0.519078        -0.444402        -3.043443
 H         1.372238         0.433620        -1.855814
 H         0.556903         1.921910        -1.884315
 H         0.047522         1.790019         0.433344
 H         1.607678         0.267239         1.863647
