19
Iteration:  4567charge 0 multiplicity 1
 C        -2.133835        -1.668415        -0.956758
 C        -1.366058        -0.450352        -1.093097
 C        -1.933989         0.816014        -1.644976
 C        -0.610825         0.108840        -2.281701
 C         0.821149         0.441834        -1.683312
 C         0.354352         0.728910        -0.142654
 O        -0.577650        -0.311598         0.060009
 C         1.527583         0.453858         0.643270
 O         2.449148         1.310630         0.715944
 H        -3.210741        -1.404153        -0.670241
 H        -2.322689        -2.018043        -2.064876
 H        -1.562599        -2.405696        -0.358808
 H        -2.784098         0.636277        -2.354807
 H        -2.072002         1.787589        -1.113733
 H        -0.872697        -0.364017        -3.270087
 H         1.520531        -0.404933        -1.677228
 H         1.176389         1.384576        -2.083189
 H        -0.117142         1.624082         0.126284
 H         1.416907        -0.489560         1.165807
