19
Iteration:  3574
 C        -1.910613        -1.875773        -1.086647
 C        -1.328750        -0.499299        -0.974832
 C        -1.912798         0.713013        -1.789366
 C        -0.574395         0.082672        -2.179958
 C         0.615554         0.818382        -1.603477
 C         0.241333         0.941588        -0.074860
 O        -0.714480        -0.025906         0.178527
 C         1.440433         0.589526         0.845425
 O         2.591525         0.694195         0.334220
 H        -1.344342        -2.477929        -1.692806
 H        -1.852731        -2.237416        -0.024277
 H        -2.884532        -1.900499        -1.421617
 H        -2.761376         0.403057        -2.398145
 H        -1.980997         1.670437        -1.271246
 H        -0.496237        -0.592174        -3.015212
 H         1.638341         0.402541        -1.917117
 H         0.736424         1.910451        -1.906487
 H        -0.219294         2.052044         0.031675
 H         1.292579         0.321050         1.970960
