19
Iteration:  3156charge 0 multiplicity 1
 C        -1.407204        -1.880363        -0.717233
 C        -1.207054        -0.384043        -0.961099
 C        -2.081422         0.458344        -1.938129
 C        -0.520158         0.265558        -2.004073
 C         0.392793         1.268120        -1.438511
 C         0.264159         1.023153         0.083740
 O        -1.054506         0.368240         0.251129
 C         1.452734         0.151371         0.473906
 O         2.596463         0.239690        -0.056376
 H        -1.788983        -2.181096         0.265873
 H        -2.143463        -2.022353        -1.571483
 H        -0.442288        -2.445451        -0.989474
 H        -2.590524         0.013404        -2.775654
 H        -2.405412         1.397350        -1.587049
 H        -0.118207        -0.444369        -2.726573
 H         1.424436         1.136475        -1.757758
 H         0.178187         2.268711        -1.745936
 H         0.258327         1.884740         0.775467
 H         1.224844        -0.671050         1.198590
