19
Iteration:  1467charge 0 multiplicity 1
 C        -1.559725        -1.911035        -0.854724
 C        -1.296065        -0.437598        -0.935057
 C        -2.039687         0.532812        -1.779236
 C        -0.559067         0.190060        -2.075630
 C         0.462494         1.161875        -1.519470
 C         0.261958         1.077602        -0.001894
 O        -0.883713         0.230822         0.276517
 C         1.465160         0.238164         0.483956
 O         2.586486         0.384628         0.076168
 H        -2.160937        -2.077444         0.101097
 H        -2.236023        -2.166787        -1.635606
 H        -0.658242        -2.464686        -0.762658
 H        -2.682203         0.186330        -2.665660
 H        -2.276419         1.554202        -1.389000
 H        -0.461423        -0.218912        -3.070103
 H         1.544814         0.848388        -1.756155
 H         0.313449         2.234878        -1.899498
 H         0.224700         2.031058         0.577399
 H         1.328547        -0.511134         1.231977
