19
Iteration:  1118charge 0 multiplicity 1
 C        -1.656822        -1.849791        -0.787490
 C        -1.329641        -0.436858        -0.925316
 C        -2.132600         0.436078        -1.869347
 C        -0.708125         0.268190        -2.114706
 C         0.313486         1.325511        -1.573058
 C         0.337674         1.060839        -0.064828
 O        -0.751817         0.245475         0.176964
 C         1.547001         0.191848         0.448733
 O         2.797226         0.319797         0.330130
 H        -2.449205        -2.055512         0.085868
 H        -2.019854        -2.203636        -1.746441
 H        -0.745808        -2.467474        -0.418917
 H        -2.764382        -0.305854        -2.427670
 H        -2.604855         1.368973        -1.545065
 H        -0.386790        -0.396706        -2.925733
 H         1.139274         1.046150        -2.132572
 H         0.137763         2.397974        -1.736751
 H         0.300763         1.904160         0.576220
 H         1.229143        -0.790842         0.982235
