19
Iteration:  2370charge 0 multiplicity 1
 C        -1.656065        -1.910246        -0.863720
 C        -1.314238        -0.406004        -0.926768
 C        -2.030108         0.522613        -1.826440
 C        -0.534755         0.211312        -2.105131
 C         0.482417         1.174231        -1.566153
 C         0.296502         0.978469         0.062944
 O        -0.854362         0.218584         0.344707
 C         1.471174         0.213414         0.542317
 O         2.568129         0.450863         0.020365
 H        -1.925828        -2.052438         0.080280
 H        -2.508576        -2.057691        -1.574863
 H        -0.730139        -2.506947        -1.231224
 H        -2.672505         0.047470        -2.599935
 H        -2.457222         1.508326        -1.572958
 H        -0.257365        -0.359583        -2.969395
 H         1.567385         0.866061        -1.821769
 H         0.447018         2.211018        -1.924242
 H         0.093649         1.983356         0.621376
 H         1.445313        -0.269409         1.538568
