19
Iteration:  1893charge 0 multiplicity 1
 C        -1.577249        -1.903551        -0.688145
 C        -1.225145        -0.418972        -0.953936
 C        -2.097138         0.426890        -2.023242
 C        -0.563217         0.277100        -2.158198
 C         0.236684         1.423159        -1.448483
 C         0.336658         1.047116         0.027123
 O        -0.867295         0.285287         0.262837
 C         1.571980         0.192794         0.487626
 O         2.684823         0.189601         0.096654
 H        -2.560319        -1.941743        -0.091444
 H        -1.543708        -2.482327        -1.600890
 H        -0.852838        -2.401429        -0.173541
 H        -2.742078         0.019427        -2.758596
 H        -2.613590         1.279586        -1.583833
 H        -0.283295        -0.383197        -2.977094
 H         1.230675         1.420662        -1.841114
 H        -0.336920         2.376875        -1.628468
 H         0.197647         1.897666         0.755825
 H         1.244662        -0.434104         1.418999
