19
Iteration:   305charge 0 multiplicity 1
 C        -1.506299        -1.838880        -0.853794
 C        -1.359611        -0.309211        -0.832460
 C        -2.074615         0.475858        -1.908259
 C        -0.563072         0.193524        -2.039544
 C         0.339888         1.250889        -1.508907
 C         0.346224         0.989013         0.015606
 O        -0.895645         0.327793         0.353612
 C         1.482474         0.160065         0.436524
 O         2.631780         0.267162         0.034704
 H        -2.317492        -2.348865        -0.193082
 H        -1.619095        -2.092138        -1.918768
 H        -0.556484        -2.248308        -0.370721
 H        -2.631543        -0.123507        -2.550669
 H        -2.269536         1.473335        -2.002896
 H        -0.120335        -0.496433        -2.797552
 H         1.413186         1.140010        -1.891004
 H        -0.093984         2.294950        -1.684570
 H         0.305875         1.957203         0.559432
 H         1.131168        -0.641730         1.120626
