19
Iteration:  4912charge 0 multiplicity 1
 C        -1.801948        -1.882532        -0.823187
 C        -1.225182        -0.504333        -1.032609
 C        -1.876507         0.342893        -2.137396
 C        -0.335073        -0.007623        -2.191728
 C         0.636915         1.075474        -1.682165
 C         0.231363         1.085107        -0.154604
 O        -0.936967         0.363760         0.113225
 C         1.316831         0.409126         0.877879
 O         2.535558         0.536352         0.632213
 H        -1.877245        -2.078097         0.295271
 H        -2.804938        -1.994802        -1.058064
 H        -1.404563        -2.764913        -1.406368
 H        -2.619541        -0.099054        -2.855242
 H        -2.133135         1.382730        -1.869099
 H        -0.172552        -0.536928        -3.170156
 H         1.700462         0.843797        -1.657186
 H         0.457106         2.085642        -2.201090
 H         0.051227         2.145179         0.213175
 H         0.874908        -0.108992         1.708536
