19
Iteration:  1428
 C        -1.605587        -1.839978        -0.855910
 C        -1.329547        -0.430437        -0.939761
 C        -2.088523         0.552413        -1.851129
 C        -0.671917         0.168376        -2.121982
 C         0.390430         1.174736        -1.530593
 C         0.321107         0.988932         0.014488
 O        -0.826419         0.206552         0.271236
 C         1.524553         0.276483         0.594738
 O         2.699642         0.373527         0.095198
 H        -2.535486        -2.015002        -0.392967
 H        -1.503181        -2.326700        -1.895588
 H        -0.693662        -2.375192        -0.405839
 H        -2.676932         0.116078        -2.609945
 H        -2.319966         1.524278        -1.496255
 H        -0.603471        -0.403341        -3.078199
 H         1.357624         0.956249        -1.829777
 H         0.078459         2.146044        -1.783301
 H         0.244697         2.036970         0.520734
 H         1.200860        -0.142516         1.581099
