19
Iteration:  4137
 C        -2.078755        -1.758278        -1.001552
 C        -1.336425        -0.473864        -1.047473
 C        -1.835166         0.681879        -1.855620
 C        -0.513829         0.052686        -2.239506
 C         0.719374         0.687963        -1.548464
 C         0.286741         0.878538        -0.075237
 O        -0.681092        -0.185259         0.193219
 C         1.429899         0.742352         0.865621
 O         2.478644         0.817248         0.341396
 H        -2.607079        -2.058618        -1.881917
 H        -1.340185        -2.521107        -0.710505
 H        -2.956748        -1.740708        -0.264311
 H        -2.778640         0.599356        -2.418199
 H        -1.714324         1.717340        -1.578095
 H        -0.292672        -0.550953        -3.099218
 H         1.624219         0.111292        -1.741910
 H         1.061676         1.651448        -1.977609
 H        -0.026680         1.930512         0.188469
 H         1.215670         0.498656         1.950873
