19
Iteration:  4612charge 0 multiplicity 1
 C        -2.184729        -1.752248        -1.062035
 C        -1.472208        -0.465444        -1.078290
 C        -1.926969         0.762999        -1.827144
 C        -0.600801        -0.019377        -2.207358
 C         0.674021         0.610515        -1.770399
 C         0.348914         0.651293        -0.181132
 O        -0.652922        -0.233155         0.106243
 C         1.624855         0.622087         0.847327
 O         2.661551         1.229895         0.766748
 H        -2.587415        -2.154256        -0.010699
 H        -3.242857        -1.765449        -1.555194
 H        -1.528596        -2.529793        -1.430581
 H        -2.863687         0.891877        -2.392456
 H        -1.650806         1.643220        -1.196386
 H        -0.627145        -0.543409        -3.227572
 H         1.544303        -0.014481        -2.097607
 H         0.666274         1.628549        -2.070269
 H         0.134159         1.685376        -0.116516
 H         1.478041        -0.210500         1.683688
