19
Iteration:   693
 C        -1.465230        -1.927974        -0.693922
 C        -1.363460        -0.391204        -0.900262
 C        -2.036569         0.449726        -1.955571
 C        -0.526819         0.303086        -2.065345
 C         0.408952         1.381405        -1.491484
 C         0.354573         0.970203         0.060104
 O        -1.038008         0.379176         0.306070
 C         1.534452         0.117802         0.449237
 O         2.582683         0.238684        -0.051305
 H        -2.317154        -2.112762         0.007234
 H        -1.878076        -2.211941        -1.673386
 H        -0.524446        -2.613237        -0.537613
 H        -2.702631         0.022054        -2.663777
 H        -2.387728         1.419228        -1.616366
 H        -0.116142        -0.423915        -2.780235
 H         1.398940         1.205597        -1.941750
 H         0.271361         2.348808        -1.622723
 H         0.367272         1.747731         0.811260
 H         1.298757        -0.613596         1.292808
