19
Iteration:  2195charge 0 multiplicity 1
 C        -1.554006        -1.909482        -0.704618
 C        -1.291525        -0.429096        -0.985824
 C        -2.045073         0.491264        -1.874349
 C        -0.587635         0.291521        -2.126745
 C         0.346429         1.354466        -1.473615
 C         0.296173         1.029638        -0.022861
 O        -0.912059         0.307707         0.227250
 C         1.534460         0.064783         0.390444
 O         2.648289         0.330442         0.201184
 H        -1.837864        -1.957573         0.290262
 H        -2.232452        -2.409484        -1.397656
 H        -0.443022        -2.315007        -0.829853
 H        -2.667490         0.006531        -2.608087
 H        -2.524601         1.343832        -1.407595
 H        -0.246419        -0.410204        -2.979638
 H         1.357546         1.117510        -1.983029
 H        -0.158890         2.365668        -1.690284
 H         0.359290         1.740257         0.675634
 H         1.230982        -0.917051         0.836103
