19
Iteration:   981
 C        -1.668814        -1.824072        -0.716000
 C        -1.357652        -0.400512        -1.069577
 C        -2.132136         0.446333        -1.999485
 C        -0.618505         0.299345        -2.171294
 C         0.320219         1.331912        -1.507917
 C         0.327873         0.953644         0.007301
 O        -0.869035         0.135143         0.275685
 C         1.653274         0.353745         0.643956
 O         2.786691         0.239484         0.127951
 H        -2.298567        -1.859273         0.158326
 H        -2.195805        -2.276777        -1.618543
 H        -0.816917        -2.519218        -0.532748
 H        -2.716780        -0.221616        -2.683407
 H        -2.649093         1.350247        -1.600110
 H        -0.236456        -0.333628        -3.007391
 H         1.383876         1.308946        -1.921611
 H        -0.038180         2.287542        -1.452123
 H         0.139620         1.865628         0.493683
 H         1.465672        -0.039564         1.647504
