19
Iteration:  4047
 C        -1.974185        -1.831906        -0.859160
 C        -1.410668        -0.402093        -1.014664
 C        -1.958252         0.783439        -1.878830
 C        -0.668324         0.097776        -2.227639
 C         0.674490         0.628095        -1.744298
 C         0.362851         0.872482        -0.182864
 O        -0.625998        -0.101724         0.115599
 C         1.466039         0.444304         0.707190
 O         2.586823         0.989785         0.713020
 H        -1.836878        -2.372441        -1.912336
 H        -1.504169        -2.461289        -0.159789
 H        -3.053424        -1.848553        -0.828178
 H        -2.953065         0.738254        -2.424192
 H        -1.956602         1.865138        -1.475907
 H        -0.745917        -0.465300        -3.203108
 H         1.520006        -0.124096        -1.786057
 H         1.230239         1.427009        -2.231735
 H        -0.039906         1.819371         0.027438
 H         1.076811        -0.393846         1.346024
