19
Iteration:  2969
 C        -1.531405        -1.902378        -0.739877
 C        -1.238178        -0.366197        -0.815071
 C        -2.038365         0.306493        -1.973619
 C        -0.455169         0.315989        -2.120313
 C         0.255354         1.491743        -1.510265
 C         0.354060         1.205918         0.016205
 O        -0.883348         0.301843         0.346129
 C         1.445620         0.161840         0.480721
 O         2.562289         0.048891         0.002165
 H        -2.516529        -2.377344        -0.326143
 H        -1.713359        -2.243316        -1.930139
 H        -0.651023        -2.541388        -0.481755
 H        -2.537357        -0.323817        -2.700966
 H        -2.456661         1.261821        -1.699041
 H        -0.077685        -0.352276        -2.921988
 H         1.245604         1.680177        -1.876328
 H        -0.193929         2.424878        -1.696400
 H         0.368867         2.052874         0.708812
 H         1.169214        -0.271755         1.489064
