19
Iteration:  4134charge 0 multiplicity 1
 C        -2.086455        -1.744376        -0.991522
 C        -1.305320        -0.465133        -1.063390
 C        -1.843286         0.690213        -1.854626
 C        -0.506811         0.063096        -2.230418
 C         0.680854         0.692542        -1.557692
 C         0.274020         0.854998        -0.102282
 O        -0.678600        -0.201723         0.179729
 C         1.444739         0.733551         0.873009
 O         2.489721         0.822998         0.355139
 H        -2.564538        -2.061201        -1.959724
 H        -1.418195        -2.401132        -0.567002
 H        -2.870238        -1.681631        -0.365881
 H        -2.804156         0.437551        -2.403976
 H        -1.656796         1.763014        -1.615037
 H        -0.345702        -0.691596        -3.004845
 H         1.564552         0.072984        -1.728743
 H         1.041102         1.634817        -1.870278
 H        -0.107482         1.936327         0.312389
 H         1.299291         0.635903         1.960857
