19
Iteration:  1590
 C        -1.402724        -1.866278        -0.747395
 C        -1.395204        -0.385613        -0.922180
 C        -2.057229         0.518376        -1.917699
 C        -0.631197         0.299338        -2.050822
 C         0.422572         1.191953        -1.438619
 C         0.310051         0.918653         0.033530
 O        -1.014065         0.354264         0.232552
 C         1.508150         0.103394         0.412071
 O         2.627862         0.353304         0.033381
 H        -2.234780        -2.050813        -0.264408
 H        -1.160689        -2.557435        -1.603849
 H        -0.576763        -2.068856        -0.017139
 H        -2.682237         0.011646        -2.630811
 H        -2.507867         1.414307        -1.462392
 H        -0.249079        -0.330743        -2.894366
 H         1.474138         1.039864        -1.790304
 H         0.161901         2.272147        -1.624428
 H         0.385277         1.867471         0.764763
 H         1.508102        -0.785260         1.024753
