19
Iteration:  4490charge 0 multiplicity 1
 C        -2.222354        -1.732384        -0.923328
 C        -1.384646        -0.477056        -1.046342
 C        -1.966242         0.723959        -1.856578
 C        -0.630507         0.071964        -2.283544
 C         0.663637         0.663897        -1.714089
 C         0.407508         0.821897        -0.227690
 O        -0.535904        -0.227499         0.175130
 C         1.698999         0.349892         0.502709
 O         2.477832         1.246514         0.976126
 H        -3.267477        -1.455573        -0.987235
 H        -2.078050        -2.575062        -1.719600
 H        -2.265491        -2.077116         0.131552
 H        -2.768500         0.326693        -2.513961
 H        -2.247815         1.768571        -1.616884
 H        -0.533718        -0.321213        -3.244716
 H         1.432202        -0.086309        -1.893319
 H         1.050769         1.596422        -2.217327
 H        -0.025850         1.701485         0.125796
 H         1.853903        -0.747437         0.320419
