19
Iteration:   510
 C        -1.618052        -1.917251        -0.871665
 C        -1.317927        -0.385329        -0.840123
 C        -1.995026         0.421217        -1.891658
 C        -0.596336         0.204943        -2.059246
 C         0.352230         1.314195        -1.488494
 C         0.351969         1.135473        -0.028062
 O        -0.796248         0.275699         0.330787
 C         1.475102         0.298692         0.527035
 O         2.605447         0.176898         0.006759
 H        -2.230128        -2.250454        -0.038475
 H        -2.113329        -2.091722        -1.747164
 H        -0.742905        -2.573186        -0.807341
 H        -2.761667         0.025108        -2.495167
 H        -2.256545         1.410608        -1.667393
 H        -0.304005        -0.441495        -2.882898
 H         1.452584         1.321195        -1.748022
 H        -0.012524         2.375700        -1.679396
 H         0.118032         2.068803         0.505894
 H         1.087722        -0.465873         1.176463
