19
Iteration:  1589
 C        -1.400701        -1.874540        -0.757695
 C        -1.392331        -0.377857        -0.922585
 C        -2.055776         0.519428        -1.917185
 C        -0.625130         0.297404        -2.050921
 C         0.426230         1.196040        -1.447297
 C         0.314785         0.917190         0.035304
 O        -1.012616         0.359897         0.244004
 C         1.514232         0.108106         0.408564
 O         2.616193         0.353372         0.035977
 H        -2.246540        -2.068869        -0.274171
 H        -1.172782        -2.612679        -1.569350
 H        -0.609884        -2.046529        -0.038637
 H        -2.697330        -0.010766        -2.611179
 H        -2.503032         1.414351        -1.425109
 H        -0.248324        -0.325580        -2.917540
 H         1.453569         0.975894        -1.767300
 H         0.136599         2.241197        -1.632298
 H         0.361072         1.880137         0.770535
 H         1.486470        -0.796196         0.990556
