19
Iteration:  4290
 C        -1.986060        -1.732881        -0.790475
 C        -1.402902        -0.396418        -1.012010
 C        -2.053184         0.562803        -2.082114
 C        -0.646360        -0.002158        -2.255509
 C         0.468924         0.811626        -1.719222
 C         0.394256         0.840288        -0.250205
 O        -0.727160         0.132832         0.198420
 C         1.868996         0.330187         0.315445
 O         2.526905         0.897523         1.125152
 H        -1.821126        -2.322150        -1.644030
 H        -1.572852        -2.250567         0.031398
 H        -3.077132        -1.750507        -0.505539
 H        -2.970130         0.283725        -2.614975
 H        -1.893200         1.548399        -1.667721
 H        -0.479279        -0.863421        -3.002334
 H         1.411086         0.344981        -2.013409
 H         0.485453         1.875578        -2.106877
 H         0.410076         1.904822         0.232015
 H         1.993193        -0.716459        -0.136902
