19
Iteration:  1253charge 0 multiplicity 1
 C        -1.635407        -1.893670        -0.820918
 C        -1.250616        -0.406079        -0.932858
 C        -2.100404         0.542731        -1.784841
 C        -0.664461         0.180600        -2.159401
 C         0.294961         1.283999        -1.648633
 C         0.298632         1.058469        -0.122280
 O        -0.716879         0.176142         0.301105
 C         1.459609         0.229226         0.397441
 O         2.740707         0.330808         0.349076
 H        -2.605157        -1.943082        -0.334544
 H        -1.862041        -2.371035        -1.906741
 H        -0.889512        -2.403432        -0.076382
 H        -2.918943         0.062173        -2.284605
 H        -2.293465         1.465138        -1.278337
 H        -0.267008        -0.295674        -3.028658
 H         1.384442         1.299667        -2.065836
 H        -0.082977         2.328880        -1.998998
 H         0.304130         1.808261         0.605578
 H         1.035683        -0.521446         1.018584
