19
Iteration:  2678charge 0 multiplicity 1
 C        -1.584384        -1.825213        -0.774770
 C        -1.327689        -0.353498        -0.892917
 C        -2.185657         0.450152        -1.787359
 C        -0.635169         0.269346        -2.177544
 C         0.278805         1.286054        -1.675656
 C         0.317692         1.023252        -0.111854
 O        -0.743460         0.183465         0.194441
 C         1.501463         0.215470         0.503113
 O         2.778279         0.293949         0.350309
 H        -2.509539        -2.155094        -0.312205
 H        -1.513581        -2.269534        -1.870134
 H        -0.838554        -2.517427        -0.212814
 H        -2.927280         0.105534        -2.468324
 H        -2.273515         1.473327        -1.448935
 H        -0.545194        -0.367991        -3.031762
 H         1.275814         1.076113        -2.010281
 H        -0.054595         2.244749        -1.696544
 H         0.333176         2.103977         0.412307
 H         1.127870        -0.632901         1.121226
