19
Iteration:  2125
 C        -1.504780        -1.889560        -0.817663
 C        -1.398305        -0.352359        -0.929258
 C        -2.075352         0.474630        -1.953030
 C        -0.632919         0.299679        -2.093084
 C         0.391383         1.261448        -1.534731
 C         0.320847         0.898130         0.044144
 O        -0.980371         0.265358         0.266731
 C         1.581383         0.204125         0.607617
 O         2.718397         0.313853         0.007189
 H        -2.427781        -2.000331        -0.157795
 H        -1.522840        -2.441585        -1.764156
 H        -0.643382        -2.153794        -0.273603
 H        -2.828477        -0.111590        -2.494049
 H        -2.491105         1.394459        -1.480938
 H        -0.309443        -0.306564        -2.859653
 H         1.423935         1.041651        -1.706114
 H         0.018620         2.343413        -1.628323
 H         0.357835         1.861768         0.599446
 H         1.428623        -0.163123         1.675133
