19
Iteration:  2260charge 0 multiplicity 1
 C        -1.531888        -1.889893        -0.791182
 C        -1.285810        -0.429825        -0.958080
 C        -2.151805         0.534423        -1.879932
 C        -0.633958         0.191410        -2.088208
 C         0.321474         1.304384        -1.546636
 C         0.372814         1.014301        -0.031612
 O        -0.875823         0.336329         0.273789
 C         1.474972         0.053908         0.365005
 O         2.713840         0.374253         0.242821
 H        -2.379246        -2.178220        -0.373785
 H        -1.474538        -2.504476        -1.657884
 H        -0.780626        -2.293767        -0.040897
 H        -2.827579         0.088037        -2.574474
 H        -2.395946         1.418688        -1.301520
 H        -0.315030        -0.391284        -3.007700
 H         1.432941         1.197648        -1.853741
 H        -0.032527         2.364195        -1.686037
 H         0.378188         1.934051         0.585609
 H         1.200881        -0.857110         1.002390
