19
Iteration:  3503charge 0 multiplicity 1
 C        -1.758429        -1.951844        -0.879524
 C        -1.332048        -0.460907        -1.051403
 C        -2.061193         0.631692        -1.804317
 C        -0.629785         0.210214        -2.246134
 C         0.545780         1.020329        -1.690188
 C         0.326861         0.939341        -0.123291
 O        -0.699976         0.094823         0.157392
 C         1.444071         0.437539         0.742881
 O         2.603428         0.558774         0.480863
 H        -1.318141        -2.415646         0.106816
 H        -2.838755        -1.989064        -0.858891
 H        -1.351522        -2.641695        -1.741616
 H        -3.044430         0.344414        -2.186781
 H        -1.974965         1.596025        -1.354251
 H        -0.588713        -0.391157        -3.181973
 H         1.464759         0.659577        -2.053326
 H         0.537842         2.039513        -2.049667
 H         0.139646         2.016354         0.213613
 H         1.106050        -0.103900         1.712913
