19
Iteration:  1117charge 0 multiplicity 1
 C        -1.646743        -1.843452        -0.784240
 C        -1.330987        -0.433475        -0.928168
 C        -2.144395         0.446897        -1.867590
 C        -0.705825         0.261500        -2.120022
 C         0.311307         1.324243        -1.576488
 C         0.343545         1.050442        -0.072595
 O        -0.755690         0.245370         0.178351
 C         1.555577         0.184279         0.455752
 O         2.791676         0.324477         0.327616
 H        -2.463550        -2.063736         0.076810
 H        -2.002682        -2.207189        -1.741756
 H        -0.744352        -2.433351        -0.414675
 H        -2.736125        -0.305966        -2.412955
 H        -2.630846         1.358396        -1.553900
 H        -0.374416        -0.390656        -2.931495
 H         1.149502         1.077903        -2.094994
 H         0.144324         2.341186        -1.725961
 H         0.275334         1.923348         0.599640
 H         1.231337        -0.811183         1.015775
