19
Iteration:  3314
 C        -1.624165        -1.904849        -0.839892
 C        -1.278186        -0.373407        -1.018485
 C        -2.169453         0.506362        -1.909189
 C        -0.635983         0.271548        -2.209984
 C         0.413142         1.156604        -1.602415
 C         0.375020         0.964139        -0.054302
 O        -0.858264         0.185217         0.201486
 C         1.556093         0.336653         0.660390
 O         2.697167         0.387595         0.363578
 H        -1.377891        -2.759616        -1.535396
 H        -1.111616        -2.295045         0.144553
 H        -2.682790        -2.036253        -0.735283
 H        -2.926822         0.067094        -2.594304
 H        -2.445057         1.419891        -1.372106
 H        -0.338274        -0.233068        -3.165427
 H         1.334935         0.894933        -2.131445
 H         0.233707         2.203110        -1.774050
 H         0.038641         1.864570         0.480618
 H         1.225521        -0.286120         1.520833
