19
Iteration:  3840charge 0 multiplicity 1
 C        -2.122723        -1.707547        -0.955872
 C        -1.384136        -0.418384        -1.081008
 C        -1.885797         0.803233        -1.674811
 C        -0.699435        -0.002546        -2.290786
 C         0.731844         0.361994        -1.841564
 C         0.487891         0.758213        -0.324882
 O        -0.606304        -0.111016         0.076158
 C         1.712770         0.365158         0.542434
 O         2.252970         1.350324         1.091811
 H        -2.181226        -2.165313         0.075617
 H        -3.114808        -1.397483        -1.139405
 H        -1.757727        -2.360726        -1.676450
 H        -2.841249         0.703267        -2.274937
 H        -1.858520         1.774038        -1.134257
 H        -0.777697        -0.613514        -3.166244
 H         1.438663        -0.444441        -1.849045
 H         1.230838         1.130353        -2.395901
 H         0.305087         1.775923         0.004309
 H         2.128187        -0.645853         0.600754
