19
Iteration:  3520
 C        -1.726717        -1.894818        -0.926009
 C        -1.370888        -0.432256        -1.063304
 C        -2.117701         0.643545        -1.871314
 C        -0.707704         0.189393        -2.245421
 C         0.581847         0.934487        -1.622418
 C         0.377207         0.951905        -0.079954
 O        -0.832687        -0.002674         0.169372
 C         1.530675         0.487460         0.828893
 O         2.689286         0.598275         0.412681
 H        -0.979234        -2.215627        -0.256604
 H        -2.760175        -2.027445        -0.494392
 H        -1.605919        -2.365637        -1.826985
 H        -2.804372         0.429862        -2.683275
 H        -2.362688         1.530174        -1.269010
 H        -0.473543        -0.346653        -3.131646
 H         1.503334         0.274992        -1.790528
 H         0.724102         1.965402        -2.072012
 H         0.045550         1.957169         0.319040
 H         1.213528         0.197046         1.841042
