19
Iteration:  4380charge 0 multiplicity 1
 C        -1.872373        -1.892042        -0.773399
 C        -1.411322        -0.431951        -1.030866
 C        -2.010789         0.759250        -1.898233
 C        -0.740676        -0.001628        -2.240138
 C         0.586508         0.695498        -1.859438
 C         0.464992         0.956200        -0.291363
 O        -0.695491         0.137155         0.115365
 C         1.664282         0.323235         0.399217
 O         2.426804         0.889179         1.150567
 H        -2.311702        -2.373896        -1.567428
 H        -0.970692        -2.561196        -0.550034
 H        -2.452170        -1.911538         0.191918
 H        -2.888201         0.566155        -2.527332
 H        -2.002650         1.814047        -1.564747
 H        -0.658292        -0.427881        -3.241722
 H         1.375552        -0.065175        -2.019341
 H         0.745755         1.659317        -2.442231
 H         0.346130         2.128182         0.006756
 H         1.948264        -0.651584         0.010672
