19
Iteration:  4467charge 0 multiplicity 1
 C        -2.096305        -1.761039        -0.767761
 C        -1.385025        -0.463945        -1.086383
 C        -1.896515         0.756462        -1.797900
 C        -0.638334         0.012801        -2.340327
 C         0.662104         0.692899        -1.779752
 C         0.343323         0.817499        -0.249869
 O        -0.599592        -0.148573         0.045892
 C         1.628447         0.392965         0.468447
 O         2.452250         1.124316         1.036011
 H        -3.126836        -1.689861        -0.870718
 H        -1.733773        -2.454490        -1.586140
 H        -1.945913        -2.080808         0.328072
 H        -2.738288         0.946646        -2.458751
 H        -1.758706         1.615106        -1.127834
 H        -0.701462        -0.673963        -3.136453
 H         1.550310         0.141169        -2.004185
 H         0.860238         1.771399        -2.101535
 H        -0.058645         1.690342         0.070560
 H         1.608766        -0.751778         0.428365
