19
Iteration:  2266
 C        -1.544704        -1.929982        -0.779876
 C        -1.285968        -0.416056        -0.941572
 C        -2.104141         0.494259        -1.836407
 C        -0.588329         0.282058        -2.109671
 C         0.294430         1.316011        -1.566531
 C         0.365199         1.009135        -0.010459
 O        -0.875068         0.302796         0.252034
 C         1.517096         0.105358         0.345915
 O         2.691031         0.336759         0.259618
 H        -2.715153        -2.106834        -0.306573
 H        -1.444157        -2.593963        -1.696083
 H        -0.839197        -2.307132        -0.066430
 H        -2.826572         0.172896        -2.629594
 H        -2.399207         1.412301        -1.316791
 H        -0.408614        -0.405935        -2.899879
 H         1.278761         1.121992        -1.858941
 H        -0.122595         2.259653        -1.857372
 H         0.381458         2.091169         0.431579
 H         1.205809        -0.716949         0.988901
