19
Iteration:  1261
 C        -1.646726        -1.870632        -0.795979
 C        -1.280384        -0.398806        -1.013861
 C        -2.129317         0.517101        -1.767422
 C        -0.639536         0.231203        -2.178995
 C         0.280774         1.270611        -1.645121
 C         0.338317         1.074883        -0.034161
 O        -0.756613         0.146456         0.274048
 C         1.568160         0.286243         0.437659
 O         2.719085         0.302351         0.333475
 H        -2.581684        -2.010474        -0.197282
 H        -1.717984        -2.463250        -1.750294
 H        -0.814405        -2.442474        -0.249104
 H        -2.862571         0.046662        -2.448395
 H        -2.279460         1.581744        -1.408080
 H        -0.363696        -0.471816        -2.976561
 H         1.133433         1.048313        -2.161242
 H        -0.058820         2.208956        -1.910675
 H         0.184540         2.075022         0.581662
 H         1.079503        -0.594562         0.970017
