19
Iteration:  3336
 C        -1.746345        -1.848177        -0.763187
 C        -1.345737        -0.403618        -1.047924
 C        -2.108880         0.484574        -1.943102
 C        -0.642056         0.239818        -2.217457
 C         0.374268         1.298458        -1.621770
 C         0.348582         0.854182        -0.049389
 O        -0.802518         0.110239         0.147147
 C         1.602692         0.341835         0.690104
 O         2.744156         0.420450         0.406175
 H        -1.835278        -2.445376        -1.738051
 H        -0.792705        -2.346116        -0.310670
 H        -2.663445        -2.052125        -0.241247
 H        -2.783530        -0.131484        -2.567922
 H        -2.500358         1.414602        -1.540680
 H        -0.336514        -0.214499        -3.177591
 H         1.349662         0.932212        -1.898945
 H         0.187468         2.309502        -1.909349
 H         0.204652         1.956940         0.470355
 H         1.324052        -0.034941         1.686426
