19
Iteration:   429
 C        -1.482730        -1.834009        -0.742892
 C        -1.252997        -0.371975        -0.933824
 C        -2.087928         0.453647        -1.785685
 C        -0.531829         0.293185        -2.122405
 C         0.385793         1.223255        -1.528860
 C         0.284902         1.030839        -0.005497
 O        -0.916009         0.346175         0.285050
 C         1.438266         0.126685         0.437458
 O         2.588800         0.240998         0.030867
 H        -2.393817        -2.158671        -0.268651
 H        -1.428762        -2.221522        -1.806035
 H        -0.586228        -2.175587        -0.279824
 H        -2.784325        -0.178599        -2.444603
 H        -2.307269         1.487101        -1.272440
 H        -0.258341        -0.398965        -2.903716
 H         1.609470         1.034400        -1.741671
 H         0.134828         2.292230        -1.772820
 H         0.215488         1.962160         0.618694
 H         0.991754        -0.608902         1.182310
