19
Iteration:   392charge 0 multiplicity 1
 C        -1.470636        -1.853389        -0.747472
 C        -1.365090        -0.321339        -0.890753
 C        -2.091889         0.484669        -1.929969
 C        -0.577366         0.218721        -2.064552
 C         0.304734         1.324040        -1.503632
 C         0.310453         1.035833        -0.030149
 O        -0.947323         0.359883         0.294351
 C         1.510266         0.101216         0.407533
 O         2.702144         0.183935         0.120552
 H        -2.011856        -2.529670         0.063671
 H        -1.718878        -2.308337        -1.769741
 H        -0.339469        -2.127772        -0.645190
 H        -2.727195         0.025541        -2.603109
 H        -2.529914         1.340476        -1.644677
 H        -0.146131        -0.426800        -2.839805
 H         1.285295         1.343936        -1.881907
 H        -0.131360         2.289365        -1.799499
 H         0.503947         1.918731         0.587993
 H         1.291170        -0.615397         1.193260
