19
Iteration:  3877
 C        -2.127336        -1.759018        -0.960067
 C        -1.487899        -0.393146        -0.972540
 C        -1.900022         0.841649        -1.822363
 C        -0.704161        -0.049145        -2.259887
 C         0.685568         0.391807        -1.835396
 C         0.476297         0.852134        -0.288079
 O        -0.596469        -0.129165         0.070520
 C         1.736705         0.475365         0.487236
 O         2.384312         1.264570         1.189167
 H        -2.355833        -2.189735         0.005341
 H        -3.024551        -1.788997        -1.626713
 H        -1.437262        -2.625928        -1.452258
 H        -2.805839         0.736282        -2.418294
 H        -1.778981         1.825826        -1.343978
 H        -0.906389        -0.768929        -3.109346
 H         1.465239        -0.532915        -1.829523
 H         0.949254         1.110333        -2.676767
 H         0.185786         1.874147        -0.130676
 H         1.960799        -0.612101         0.464000
