19
Iteration:  1031charge 0 multiplicity 1
 C        -1.598853        -1.823430        -0.822008
 C        -1.259978        -0.427554        -0.916603
 C        -2.085678         0.449890        -1.797869
 C        -0.647311         0.216388        -2.118200
 C         0.417616         1.239863        -1.602192
 C         0.324050         1.051914        -0.011412
 O        -0.810836         0.250097         0.291909
 C         1.491514         0.146917         0.455642
 O         2.623026         0.370689         0.177419
 H        -2.348991        -2.006391         0.014119
 H        -1.970924        -2.060509        -1.791526
 H        -0.740285        -2.529563        -0.683180
 H        -2.714400        -0.131080        -2.471224
 H        -2.405429         1.492895        -1.729773
 H        -0.373363        -0.197413        -3.064481
 H         1.429201         0.974325        -1.961697
 H         0.137558         2.377424        -1.778368
 H         0.160446         1.956778         0.590015
 H         1.142262        -0.570376         1.312454
