19
Iteration:  1775charge 0 multiplicity 1
 C        -1.425263        -1.884545        -0.740871
 C        -1.154545        -0.453045        -0.882281
 C        -2.148158         0.394675        -1.892209
 C        -0.606618         0.315293        -2.118879
 C         0.289974         1.502303        -1.554107
 C         0.306624         1.118736        -0.053419
 O        -0.835410         0.251457         0.249662
 C         1.492612         0.258617         0.463051
 O         2.578350         0.028439         0.141028
 H        -2.471838        -1.903122        -0.206768
 H        -1.482898        -2.390528        -1.751756
 H        -0.654505        -2.451118        -0.108827
 H        -2.939076        -0.004979        -2.510630
 H        -2.499234         1.310108        -1.432627
 H        -0.122108        -0.221086        -2.925082
 H         1.221992         1.473009        -2.038288
 H        -0.077473         2.488272        -1.488039
 H         0.222857         1.964621         0.556106
 H         0.867894        -0.291157         1.186229
