19
Iteration:  3689
 C        -1.967087        -1.831691        -1.076463
 C        -1.396081        -0.361697        -1.040926
 C        -1.957360         0.792958        -1.730018
 C        -0.649047         0.092044        -2.195047
 C         0.752269         0.537389        -1.723326
 C         0.376437         0.748452        -0.147649
 O        -0.729872        -0.111303         0.193767
 C         1.519809         0.435227         0.703317
 O         2.530738         1.145844         0.665297
 H        -3.079232        -1.689687        -1.169431
 H        -1.508229        -2.380728        -1.800753
 H        -1.858856        -2.395637        -0.113256
 H        -2.724160         0.564870        -2.483262
 H        -1.841773         1.753308        -1.195655
 H        -0.747837        -0.374658        -3.171228
 H         1.374570        -0.202090        -2.126764
 H         1.101710         1.472916        -2.088408
 H        -0.055640         1.769992        -0.130022
 H         1.387467        -0.521238         1.265008
