19
Iteration:  1156charge 0 multiplicity 1
 C        -1.664423        -1.873210        -0.764601
 C        -1.278824        -0.399266        -0.911272
 C        -1.985946         0.479609        -1.807148
 C        -0.585848         0.207010        -2.088958
 C         0.311928         1.295054        -1.585709
 C         0.339889         0.926122        -0.036854
 O        -0.851626         0.271465         0.210942
 C         1.492042         0.064218         0.341441
 O         2.683539         0.476904         0.281937
 H        -2.170728        -1.987825         0.127202
 H        -2.398091        -2.234341        -1.517218
 H        -0.796886        -2.483252        -0.824864
 H        -2.804509         0.131483        -2.376516
 H        -2.130652         1.466099        -1.366936
 H        -0.367654        -0.356284        -2.981770
 H         1.425460         1.278144        -2.008146
 H        -0.161838         2.330085        -1.837896
 H         0.342051         1.875120         0.579872
 H         1.215304        -0.897871         0.750911
