19
Iteration:  3510charge 0 multiplicity 1
 C        -1.737115        -1.926594        -0.896211
 C        -1.342133        -0.457526        -1.078679
 C        -2.094027         0.642555        -1.851922
 C        -0.674191         0.192700        -2.274628
 C         0.568411         0.984913        -1.670976
 C         0.374752         1.002904        -0.106650
 O        -0.753477         0.048058         0.170956
 C         1.476815         0.418692         0.796655
 O         2.615977         0.583230         0.452608
 H        -1.238363        -2.403554         0.006670
 H        -2.851069        -2.184182        -0.691701
 H        -1.523565        -2.552661        -1.719894
 H        -3.061268         0.405457        -2.262705
 H        -2.081070         1.566366        -1.274907
 H        -0.658898        -0.453121        -3.111658
 H         1.570672         0.538616        -1.979299
 H         0.684952         2.083482        -1.813922
 H         0.227360         1.980404         0.251777
 H         1.269125         0.115009         1.798336
