19
Iteration:   713
 C        -1.593081        -1.848412        -0.824228
 C        -1.164469        -0.446232        -0.895225
 C        -2.033908         0.352292        -1.845833
 C        -0.479779         0.255075        -2.000135
 C         0.311312         1.335964        -1.443595
 C         0.293889         1.137163         0.004864
 O        -0.925376         0.425547         0.265525
 C         1.496036         0.114840         0.408572
 O         2.590661         0.178002        -0.000782
 H        -2.498391        -2.053110        -0.167480
 H        -1.865271        -2.305946        -1.840624
 H        -0.686416        -2.480188        -0.493166
 H        -2.698808        -0.319653        -2.396804
 H        -2.417075         1.281030        -1.415226
 H        -0.099196        -0.194992        -2.895905
 H         1.290851         1.517534        -1.774619
 H        -0.169554         2.344997        -1.657925
 H         0.430001         1.986167         0.633396
 H         1.113945        -0.752631         1.105603
