19
Iteration:  3814
 C        -2.260091        -1.745398        -0.781704
 C        -1.441674        -0.446765        -1.159402
 C        -1.915430         0.807523        -1.854371
 C        -0.699364         0.174722        -2.322940
 C         0.764356         0.435793        -1.843279
 C         0.482273         0.635374        -0.301540
 O        -0.502397        -0.284312         0.055144
 C         1.697184         0.482972         0.594796
 O         2.351374         1.353102         1.119309
 H        -2.117112        -1.930555         0.234900
 H        -3.375936        -1.460530        -0.878715
 H        -1.920499        -2.605844        -1.394654
 H        -2.776380         0.677145        -2.435841
 H        -2.003948         1.733793        -1.336236
 H        -0.570442        -0.448706        -3.233732
 H         1.507830        -0.251429        -2.110782
 H         1.173759         1.423444        -2.190289
 H         0.114179         1.726046        -0.041903
 H         1.868762        -0.594182         0.828645
