19
Iteration:  2480charge 0 multiplicity 1
 C        -1.562465        -1.876258        -0.930729
 C        -1.352871        -0.432308        -0.908129
 C        -2.096699         0.608651        -1.690753
 C        -0.678414         0.213864        -2.047318
 C         0.491978         1.081608        -1.574807
 C         0.293516         0.960287        -0.063327
 O        -0.850593         0.242006         0.253376
 C         1.529819         0.266587         0.511346
 O         2.631264         0.423467         0.146961
 H        -2.506872        -2.224634        -0.528126
 H        -1.452086        -2.522878        -1.909247
 H        -0.774481        -2.366045        -0.223030
 H        -2.734686         0.340883        -2.537606
 H        -2.479871         1.581223        -1.290987
 H        -0.537464        -0.181328        -3.049842
 H         1.498170         0.672084        -1.834748
 H         0.561818         2.010257        -2.116700
 H         0.156970         1.941967         0.292426
 H         1.281465        -0.278736         1.431370
