19
Iteration:   763charge 0 multiplicity 1
 C        -1.444208        -1.841308        -0.640658
 C        -1.347958        -0.353595        -0.969796
 C        -2.107670         0.430238        -1.981405
 C        -0.599608         0.301143        -2.154640
 C         0.312824         1.379787        -1.413753
 C         0.348845         0.949938         0.078476
 O        -0.972500         0.287903         0.211037
 C         1.549101         0.203064         0.488439
 O         2.676904         0.149454        -0.004041
 H        -2.362622        -2.039142        -0.118683
 H        -1.414643        -2.543605        -1.498961
 H        -0.673432        -2.110443         0.003511
 H        -2.791750         0.064556        -2.813710
 H        -2.395893         1.454917        -1.662812
 H        -0.183269        -0.357351        -2.900025
 H         1.345539         1.506883        -1.818366
 H        -0.017336         2.407476        -1.435907
 H         0.368161         1.781805         0.897548
 H         1.318509        -0.512640         1.334589
