19
Iteration:  2705
 C        -1.708524        -1.879972        -0.717318
 C        -1.249942        -0.440147        -1.004586
 C        -2.099041         0.460841        -1.893058
 C        -0.595445         0.317367        -2.145306
 C         0.268766         1.364820        -1.613862
 C         0.370497         0.991285        -0.047624
 O        -0.826608         0.156082         0.184811
 C         1.587437         0.215854         0.538674
 O         2.700383         0.327742         0.249058
 H        -2.288410        -1.981298         0.298586
 H        -2.163881        -2.494528        -1.443694
 H        -0.758692        -2.423563        -0.406447
 H        -2.888434        -0.008450        -2.553849
 H        -2.279088         1.375647        -1.295384
 H        -0.424916        -0.361330        -3.003275
 H         1.326427         1.253415        -2.029449
 H        -0.003705         2.547851        -1.630592
 H         0.435831         1.879653         0.512705
 H         1.189045        -0.405214         1.389941
