19
Iteration:  3912charge 0 multiplicity 1
 C        -2.223871        -1.713400        -0.725391
 C        -1.354865        -0.442459        -1.058217
 C        -1.912262         0.683585        -1.881426
 C        -0.600536         0.132207        -2.336374
 C         0.728129         0.606365        -1.894459
 C         0.485813         0.751158        -0.246191
 O        -0.630425        -0.166643         0.095643
 C         1.692668         0.355624         0.501767
 O         2.342337         1.223775         1.090051
 H        -3.017975        -1.428356        -0.063981
 H        -2.772021        -2.138559        -1.712467
 H        -1.486441        -2.477244        -0.284381
 H        -2.688876         0.252797        -2.477372
 H        -2.158892         1.602098        -1.434703
 H        -0.705457        -0.285934        -3.302065
 H         1.631749        -0.156820        -2.124248
 H         0.986270         1.649249        -2.388532
 H         0.225631         1.808290        -0.011074
 H         1.823800        -0.715167         0.726369
