19
Iteration:   683charge 0 multiplicity 1
 C        -1.465367        -1.852036        -0.684468
 C        -1.383119        -0.352270        -0.921218
 C        -2.067935         0.502467        -2.018804
 C        -0.554277         0.317460        -2.047937
 C         0.417479         1.285821        -1.424069
 C         0.321679         0.952843         0.026828
 O        -1.013712         0.303511         0.279451
 C         1.489932         0.105775         0.496340
 O         2.621633         0.256539        -0.082515
 H        -2.022460        -2.223864         0.201859
 H        -1.755106        -2.488052        -1.477168
 H        -0.353232        -2.101764        -0.391661
 H        -2.752775        -0.021625        -2.610979
 H        -2.322470         1.472305        -1.628623
 H        -0.045249        -0.273170        -2.836242
 H         1.474266         1.101128        -1.786804
 H         0.140720         2.263525        -1.555002
 H         0.424882         1.859200         0.652986
 H         1.375377        -0.581463         1.340084
