19
Iteration:  2669charge 0 multiplicity 1
 C        -1.580645        -1.837268        -0.859491
 C        -1.342063        -0.398217        -0.929141
 C        -2.145770         0.495107        -1.786549
 C        -0.750551         0.227881        -2.128424
 C         0.338478         1.284110        -1.673184
 C         0.362739         1.032229        -0.110110
 O        -0.821441         0.219005         0.243845
 C         1.598300         0.202188         0.492539
 O         2.742419         0.316085         0.353610
 H        -2.558212        -2.195868        -0.421334
 H        -1.382139        -2.388734        -1.813309
 H        -0.632121        -2.099135        -0.172777
 H        -2.952853         0.021892        -2.294429
 H        -2.465638         1.437533        -1.370573
 H        -0.380760        -0.504815        -2.840325
 H         1.283446         0.971072        -2.108137
 H         0.096601         2.289257        -2.052638
 H         0.354907         1.955049         0.543057
 H         1.142963        -0.631634         1.098369
