19
Iteration:  1234
 C        -1.672515        -1.899000        -0.797238
 C        -1.289267        -0.403662        -0.926426
 C        -2.075698         0.477893        -1.722712
 C        -0.611293         0.235563        -2.106758
 C         0.328270         1.306109        -1.634263
 C         0.415080         0.954103        -0.110816
 O        -0.834127         0.252007         0.244867
 C         1.490255         0.103312         0.437426
 O         2.703418         0.453587         0.296387
 H        -2.639642        -2.156090        -0.426715
 H        -1.686467        -2.184194        -1.844279
 H        -0.965360        -2.501539        -0.301541
 H        -2.702669         0.087473        -2.502339
 H        -2.204379         1.459569        -1.375814
 H        -0.472162        -0.443169        -2.946230
 H         1.270435         1.226649        -2.331850
 H        -0.068717         2.388452        -1.793685
 H         0.387437         1.929954         0.409757
 H         1.164799        -0.897834         0.981021
