19
Iteration:  1622
 C        -1.469435        -1.856989        -0.742306
 C        -1.334504        -0.406250        -0.977622
 C        -2.073925         0.418339        -1.961157
 C        -0.621449         0.316418        -2.133903
 C         0.295182         1.366013        -1.481414
 C         0.336492         0.959437         0.042847
 O        -0.943368         0.331043         0.282580
 C         1.586347         0.105805         0.494627
 O         2.655695         0.240195         0.071427
 H        -2.130275        -1.898300         0.023666
 H        -1.840272        -2.464563        -1.596596
 H        -0.540739        -2.164491        -0.282685
 H        -2.755985        -0.204601        -2.528030
 H        -2.551849         1.376429        -1.708742
 H        -0.130652        -0.357540        -2.891330
 H         1.237453         1.521403        -1.974678
 H        -0.137293         2.376485        -1.469727
 H         0.565015         1.928165         0.694669
 H         1.264155        -0.601721         1.360269
