19
Iteration:  4586
 C        -2.199214        -1.728991        -0.989338
 C        -1.378822        -0.489617        -1.099333
 C        -1.922251         0.766049        -1.776419
 C        -0.628709         0.207683        -2.263949
 C         0.691284         0.518119        -1.663435
 C         0.394558         0.704780        -0.231999
 O        -0.577230        -0.313559         0.102467
 C         1.549328         0.519673         0.792766
 O         2.544364         1.286112         0.717683
 H        -2.879569        -1.692446        -0.245202
 H        -2.828368        -2.005850        -1.837409
 H        -1.574607        -2.608757        -0.646486
 H        -2.840217         0.597854        -2.356522
 H        -1.943694         1.738240        -1.286339
 H        -0.600796        -0.262473        -3.219282
 H         1.149366        -0.432321        -1.732843
 H         1.350718         1.315019        -2.131421
 H         0.096881         1.794954        -0.136510
 H         1.537797        -0.476268         1.453253
