19
Iteration:    12charge 0 multiplicity 1
 C        -2.056454        -1.881616        -0.931667
 C        -1.368788        -0.477922        -1.003259
 C        -2.022593         0.766909        -1.578064
 C        -0.679378         0.191121        -2.123205
 C         0.630991         0.936265        -1.652535
 C         0.360745         0.866631        -0.114490
 O        -0.617305        -0.096429         0.165514
 C         1.533499         0.445041         0.688033
 O         2.646959         0.767854         0.217577
 H        -2.658941        -2.176941        -0.092155
 H        -2.602933        -2.081302        -1.877046
 H        -1.211037        -2.571363        -1.008353
 H        -2.943420         0.458382        -2.010447
 H        -2.013555         1.684081        -0.999397
 H        -0.668780        -0.289858        -3.086857
 H         1.357071         0.222300        -1.873609
 H         0.935379         1.934293        -2.156769
 H         0.141769         1.810681         0.322172
 H         1.428285        -0.397920         1.426385
