19
Iteration:  4189charge 0 multiplicity 1
 C        -1.911301        -1.810925        -0.942041
 C        -1.405761        -0.405640        -1.043450
 C        -2.029859         0.667130        -1.983510
 C        -0.654619         0.039762        -2.276180
 C         0.636359         0.690029        -1.743776
 C         0.315916         0.835432        -0.164243
 O        -0.725553         0.055965         0.177679
 C         1.553512         0.519321         0.927594
 O         2.682276         0.854869         0.656597
 H        -2.917343        -1.980204        -1.453974
 H        -1.304262        -2.462540        -1.467406
 H        -2.072390        -2.137214        -0.003024
 H        -2.871782         0.334509        -2.644914
 H        -2.372393         1.649977        -1.640281
 H        -0.578562        -0.643515        -3.085284
 H         1.488222         0.015086        -1.897064
 H         0.889473         1.642603        -2.118498
 H         0.204696         2.013396        -0.027242
 H         1.190046         0.069742         1.901975
