19
Iteration:   202
 C        -1.632465        -1.857831        -0.930393
 C        -1.257328        -0.419696        -0.942465
 C        -2.116334         0.466730        -1.784160
 C        -0.634208         0.247343        -2.087915
 C         0.371799         1.242970        -1.538801
 C         0.348834         1.094439        -0.006205
 O        -0.895430         0.191234         0.300515
 C         1.589237         0.346750         0.593110
 O         2.692837         0.212723         0.081732
 H        -2.363391        -2.196795        -0.063176
 H        -2.350260        -2.246912        -1.754672
 H        -0.706060        -2.558373        -0.997723
 H        -2.775314         0.153088        -2.619297
 H        -2.437999         1.538378        -1.515382
 H        -0.357288        -0.381879        -2.920305
 H         1.366993         1.019923        -1.801919
 H         0.297359         2.242033        -1.936437
 H         0.158951         2.062618         0.476993
 H         1.382007        -0.062408         1.570508
