19
Iteration:  2931charge 0 multiplicity 1
 C        -1.426303        -1.882031        -0.587525
 C        -1.343870        -0.366093        -1.013209
 C        -2.023484         0.420065        -2.016403
 C        -0.511261         0.290834        -2.172180
 C         0.326802         1.454070        -1.458841
 C         0.301249         0.981053         0.100166
 O        -0.939633         0.295371         0.205336
 C         1.485143         0.195685         0.543617
 O         2.580874         0.110448         0.017847
 H        -1.632733        -1.982781         0.453222
 H        -2.051426        -2.305426        -1.226223
 H        -0.479025        -2.395987        -0.762794
 H        -2.808732         0.063873        -2.686711
 H        -2.374126         1.368091        -1.540987
 H        -0.216131        -0.199541        -3.084727
 H         1.357485         1.518971        -1.902645
 H        -0.350210         2.349971        -1.673684
 H         0.305791         1.787363         0.775390
 H         1.289726        -0.341254         1.510932
