19
Iteration:  3602charge 0 multiplicity 1
 C        -2.045493        -1.799539        -0.945559
 C        -1.334385        -0.541360        -1.054320
 C        -1.900395         0.704770        -1.843475
 C        -0.556198         0.125316        -2.219438
 C         0.592705         0.928812        -1.694929
 C         0.208912         0.925094        -0.125189
 O        -0.608799        -0.243438         0.155525
 C         1.480142         0.651845         0.807114
 O         2.629325         0.730397         0.515982
 H        -1.891367        -2.633078        -1.776019
 H        -1.501991        -2.243398        -0.092091
 H        -3.193797        -1.729832        -0.642648
 H        -2.747420         0.519442        -2.516486
 H        -1.983197         1.716897        -1.343168
 H        -0.459517        -0.404172        -3.208875
 H         1.443284         0.370670        -1.964522
 H         0.802129         1.933880        -2.032407
 H        -0.334606         1.855931         0.104658
 H         1.211963         0.364481         1.834405
