19
Iteration:  3953charge 0 multiplicity 1
 C        -2.184781        -1.662855        -0.847811
 C        -1.345025        -0.445377        -1.071028
 C        -1.794989         0.662720        -1.929008
 C        -0.636181        -0.083116        -2.303863
 C         0.533490         0.710758        -1.871221
 C         0.306649         0.818137        -0.158611
 O        -0.599373        -0.139380         0.157747
 C         1.623984         0.440255         0.557700
 O         2.561058         1.111416         1.033947
 H        -3.216738        -1.547664        -0.879120
 H        -1.963871        -2.450419        -1.564763
 H        -1.959358        -1.963475         0.252202
 H        -2.745240         0.523268        -2.395017
 H        -1.849311         1.700931        -1.711419
 H        -0.528804        -0.663383        -3.229624
 H         1.434814         0.267151        -2.268391
 H         0.711519         1.689905        -2.317874
 H         0.012428         1.822372         0.133950
 H         1.694607        -0.721238         0.616353
