19
Iteration:  4590charge 0 multiplicity 1
 C        -2.191873        -1.774178        -0.991019
 C        -1.403028        -0.516204        -1.101632
 C        -1.902644         0.791753        -1.775256
 C        -0.639441         0.190350        -2.283403
 C         0.695308         0.548973        -1.663191
 C         0.441169         0.709302        -0.240772
 O        -0.619750        -0.309026         0.112880
 C         1.595829         0.537464         0.793693
 O         2.560780         1.281061         0.732669
 H        -3.012581        -1.656651        -0.107700
 H        -2.996276        -1.932293        -1.842508
 H        -1.496917        -2.600652        -0.854511
 H        -2.799501         0.565776        -2.392947
 H        -1.993982         1.835605        -1.373342
 H        -0.713743        -0.369619        -3.287189
 H         1.222032        -0.449874        -1.665088
 H         1.191813         1.383394        -2.108505
 H         0.018022         1.671267        -0.033409
 H         1.400693        -0.348795         1.479226
