19
Iteration:   390charge 0 multiplicity 1
 C        -1.469230        -1.841514        -0.749915
 C        -1.364147        -0.323748        -0.899725
 C        -2.089152         0.469631        -1.925294
 C        -0.586846         0.212998        -2.075001
 C         0.305206         1.328768        -1.485351
 C         0.307932         1.032543        -0.022435
 O        -0.948808         0.361378         0.288302
 C         1.527522         0.099861         0.399906
 O         2.705414         0.181153         0.124201
 H        -2.039770        -2.421449         0.079053
 H        -1.720664        -2.299427        -1.701920
 H        -0.347740        -2.113921        -0.680271
 H        -2.744475        -0.059383        -2.604556
 H        -2.587716         1.368543        -1.653855
 H        -0.163027        -0.386481        -2.913040
 H         1.253734         1.338893        -1.833209
 H        -0.072976         2.291576        -1.798577
 H         0.482404         1.921467         0.594590
 H         1.258653        -0.575716         1.196808
