19
Iteration:  2442charge 0 multiplicity 1
 C        -1.630509        -1.869807        -0.877354
 C        -1.334212        -0.418763        -0.993677
 C        -2.195007         0.480013        -1.772570
 C        -0.730065         0.267640        -2.146801
 C         0.337495         1.216245        -1.643940
 C         0.358913         0.973332        -0.111452
 O        -0.725681         0.191096         0.223403
 C         1.617937         0.318880         0.635031
 O         2.727729         0.308703         0.283162
 H        -2.688972        -1.907177        -0.279787
 H        -1.618690        -2.306711        -1.827187
 H        -0.829553        -2.258481        -0.239921
 H        -2.846904        -0.053130        -2.459418
 H        -2.502995         1.480895        -1.511409
 H        -0.631973        -0.220561        -3.128995
 H         1.355402         1.041953        -2.000734
 H         0.036979         2.271983        -1.846617
 H         0.345157         1.853636         0.651062
 H         1.267445        -0.028944         1.657503
