19
Iteration:   895
 C        -1.516660        -1.844468        -0.820265
 C        -1.299243        -0.408004        -0.999118
 C        -2.138333         0.446385        -1.891701
 C        -0.662001         0.311676        -2.155144
 C         0.385855         1.275543        -1.522144
 C         0.351454         1.025056         0.037876
 O        -0.883148         0.221243         0.308026
 C         1.538392         0.319994         0.629039
 O         2.638312         0.185668         0.057358
 H        -2.432423        -1.973880        -0.170551
 H        -1.650064        -2.473879        -1.781397
 H        -0.587538        -2.144855        -0.285868
 H        -2.784547        -0.101715        -2.609575
 H        -2.520464         1.469951        -1.640868
 H        -0.347881        -0.289366        -3.026435
 H         1.285721         0.803246        -1.958440
 H         0.386607         2.309175        -1.751767
 H         0.274264         1.955508         0.599208
 H         1.381859        -0.096674         1.625411
