19
Iteration:  2178
 C        -1.521089        -1.917860        -0.721839
 C        -1.202119        -0.406811        -0.933350
 C        -2.068337         0.444929        -1.845027
 C        -0.547062         0.252920        -2.116288
 C         0.299741         1.414641        -1.621075
 C         0.307386         0.977663        -0.022806
 O        -0.871379         0.236613         0.273710
 C         1.465079         0.118653         0.373602
 O         2.629960         0.289809         0.211840
 H        -2.070849        -1.807421         0.343229
 H        -2.330792        -2.044428        -1.508503
 H        -0.815624        -2.646164        -0.824548
 H        -2.831751         0.128312        -2.574951
 H        -2.267671         1.476559        -1.471372
 H        -0.140625        -0.089476        -3.025116
 H         1.298728         1.560314        -1.830376
 H        -0.039051         2.447644        -1.612555
 H         0.388096         2.070276         0.577937
 H         0.877447        -0.650865         0.988583
