19
Iteration:  4856charge 0 multiplicity 1
 C        -1.779325        -1.847711        -0.843020
 C        -1.348727        -0.401306        -1.082403
 C        -1.847541         0.458134        -2.208196
 C        -0.400233        -0.023935        -2.141627
 C         0.587890         0.899825        -1.583826
 C         0.301930         0.993254        -0.084684
 O        -0.998033         0.242524         0.100520
 C         1.397558         0.424887         0.818291
 O         2.585687         0.680173         0.583109
 H        -2.713370        -1.919255        -0.106483
 H        -2.203763        -2.353900        -1.641009
 H        -1.071141        -2.482373        -0.208505
 H        -2.586023         0.125792        -2.923299
 H        -1.937170         1.484919        -1.828865
 H        -0.079539        -0.804982        -2.934771
 H         1.684080         0.789556        -1.699560
 H         0.463184         1.933413        -2.006640
 H         0.019631         2.042680         0.303131
 H         1.084685        -0.121469         1.808299
