19
Iteration:  4110
 C        -2.171911        -1.729617        -0.976931
 C        -1.412273        -0.473195        -1.060062
 C        -1.903743         0.685354        -1.955854
 C        -0.543943         0.040966        -2.217099
 C         0.644664         0.721454        -1.581147
 C         0.272309         0.844229        -0.118052
 O        -0.639036        -0.315994         0.197820
 C         1.507768         0.832905         0.806071
 O         2.701689         0.829977         0.515765
 H        -2.180897        -2.145331        -2.002479
 H        -1.702366        -2.325477        -0.153284
 H        -3.213735        -1.641123        -0.763389
 H        -2.685181         0.398501        -2.679579
 H        -1.962669         1.699467        -1.487221
 H        -0.430392        -0.337337        -3.274355
 H         1.624824         0.276981        -1.813349
 H         0.763984         1.756143        -1.981372
 H        -0.206207         1.895408         0.313345
 H         1.294052         0.612590         1.861649
