19
Iteration:  3463
 C        -1.833796        -1.921803        -0.894654
 C        -1.327956        -0.448256        -0.985477
 C        -2.088197         0.559079        -1.883870
 C        -0.625758         0.143551        -2.244485
 C         0.445433         1.112896        -1.655395
 C         0.335486         0.991051        -0.093465
 O        -0.711313         0.113435         0.181161
 C         1.512051         0.411708         0.717478
 O         2.707853         0.540412         0.476078
 H        -2.118295        -2.165876         0.057524
 H        -2.710996        -2.170865        -1.479505
 H        -1.089043        -2.654021        -1.169009
 H        -2.944924         0.134776        -2.484405
 H        -2.174382         1.664361        -1.656288
 H        -0.122028        -0.484806        -3.037978
 H         1.521460         0.769638        -1.920295
 H         0.411921         2.223528        -1.975552
 H         0.040777         1.949435         0.458244
 H         1.245669        -0.416209         1.368482
