19
Iteration:  2047charge 0 multiplicity 1
 C        -1.609116        -1.864446        -0.801500
 C        -1.258230        -0.461518        -0.985961
 C        -2.141055         0.448312        -1.878925
 C        -0.556786         0.246053        -2.121481
 C         0.203651         1.373793        -1.554435
 C         0.373288         1.041948        -0.019145
 O        -0.808569         0.247020         0.240175
 C         1.533662         0.211526         0.594478
 O         2.709141         0.240096         0.165115
 H        -2.378144        -2.096498         0.060255
 H        -2.058572        -2.205885        -1.769538
 H        -0.716621        -2.293055        -0.537955
 H        -2.888871        -0.106744        -2.473200
 H        -2.378492         1.471402        -1.574746
 H        -0.159065        -0.312863        -3.029585
 H         1.264533         1.347065        -1.918744
 H        -0.213710         2.438487        -1.844004
 H         0.388892         1.934551         0.489247
 H         1.196508        -0.436867         1.506873
