19
Iteration:  4972charge 0 multiplicity 1
 C        -1.591222        -1.807005        -0.700605
 C        -1.269905        -0.339073        -1.054115
 C        -1.846989         0.323434        -2.343573
 C        -0.405807         0.057980        -2.260442
 C         0.610003         0.983898        -1.530094
 C         0.185016         0.977251        -0.081232
 O        -0.975876         0.323014         0.158183
 C         1.278783         0.536150         0.860198
 O         2.452348         0.410071         0.538170
 H        -0.641053        -2.233256        -0.506502
 H        -2.203565        -1.598691         0.258860
 H        -1.989429        -2.307354        -1.537057
 H        -2.493714        -0.232662        -2.980980
 H        -2.089262         1.374931        -2.277779
 H         0.012872        -0.749659        -2.914465
 H         1.669943         0.613858        -1.684265
 H         0.690728         1.966559        -1.912311
 H         0.011701         2.104848         0.181345
 H         0.881319         0.030992         1.747561
