19
Iteration:  1171
 C        -1.582406        -1.839360        -0.709518
 C        -1.357488        -0.388339        -0.945525
 C        -2.141164         0.575388        -1.928110
 C        -0.599312         0.184993        -2.140243
 C         0.384268         1.210652        -1.477339
 C         0.369104         0.884317        -0.032666
 O        -0.879625         0.257802         0.277417
 C         1.568356         0.007134         0.350213
 O         2.642635         0.558850         0.236840
 H        -2.133654        -2.050219         0.281476
 H        -2.167359        -2.150692        -1.538972
 H        -0.659008        -2.420720        -0.765513
 H        -2.834369         0.250144        -2.731675
 H        -2.339149         1.612750        -1.661820
 H        -0.129474        -0.475172        -2.884413
 H         1.317429         1.106757        -1.914791
 H         0.102787         2.184098        -1.551125
 H         0.525646         1.779182         0.684748
 H         1.413902        -1.027064         0.645892
