19
Iteration:    19charge 0 multiplicity 1
 C        -2.034089        -1.938444        -0.957652
 C        -1.368807        -0.488856        -0.964396
 C        -1.990312         0.733192        -1.556242
 C        -0.633316         0.219192        -2.126237
 C         0.652559         0.929176        -1.634084
 C         0.367378         0.950826        -0.085779
 O        -0.641721        -0.059883         0.181605
 C         1.525225         0.399217         0.652019
 O         2.579413         0.734395         0.162405
 H        -2.624975        -2.125973        -0.044428
 H        -2.673024        -2.024384        -1.800717
 H        -1.198021        -2.625713        -1.005528
 H        -3.034817         0.653324        -2.077895
 H        -2.028133         1.657381        -0.935117
 H        -0.598643        -0.252161        -3.117258
 H         1.625499         0.349391        -1.845527
 H         0.975595         1.833551        -2.126794
 H         0.003210         1.959229         0.230994
 H         1.339607        -0.379289         1.476331
