19
Iteration:  4429charge 0 multiplicity 1
 C        -1.937856        -1.810654        -0.829631
 C        -1.414469        -0.393845        -0.992167
 C        -2.110645         0.660387        -1.883820
 C        -0.727937         0.106587        -2.276861
 C         0.634951         0.678253        -1.838589
 C         0.496562         0.828583        -0.356985
 O        -0.580817         0.080112         0.097723
 C         1.667901         0.273816         0.512387
 O         2.417119         1.040898         1.126309
 H        -3.036903        -1.734251        -1.271210
 H        -1.537524        -2.573482        -1.493587
 H        -1.864006        -2.328077         0.149562
 H        -2.934496         0.443222        -2.575826
 H        -2.156476         1.620184        -1.371814
 H        -0.705031        -0.657412        -3.116095
 H         1.435857        -0.105161        -2.030991
 H         0.885714         1.630330        -2.252100
 H         0.523175         1.964668        -0.176453
 H         1.714525        -0.806706         0.759876
