19
Iteration:  1204
 C        -1.590182        -1.834267        -0.706939
 C        -1.415200        -0.332996        -0.979042
 C        -2.173353         0.485563        -1.940603
 C        -0.674358         0.266537        -2.132973
 C         0.415867         1.193496        -1.437507
 C         0.321674         0.862237         0.004111
 O        -0.984954         0.264657         0.251675
 C         1.725993         0.051307         0.361681
 O         2.775184         0.535026         0.246436
 H        -2.496124        -2.180937        -0.086070
 H        -1.869942        -2.145206        -1.669693
 H        -0.654001        -2.299892        -0.421207
 H        -2.752123        -0.016570        -2.772354
 H        -2.464331         1.520405        -1.676168
 H        -0.371870        -0.443679        -2.955680
 H         1.295997         0.850578        -1.875931
 H         0.407070         2.201345        -1.639777
 H         0.426388         1.867351         0.657352
 H         1.512041        -0.955280         0.640984
