19
Iteration:  1375
 C        -1.698584        -1.890280        -0.797087
 C        -1.281844        -0.465002        -1.040806
 C        -2.113194         0.466712        -1.846886
 C        -0.595698         0.241041        -2.145193
 C         0.322800         1.291295        -1.522226
 C         0.361797         1.003511        -0.029872
 O        -0.782180         0.153877         0.229159
 C         1.602441         0.310886         0.565885
 O         2.693990         0.339462         0.193884
 H        -2.653628        -1.709271        -0.159087
 H        -2.179753        -2.181282        -1.805019
 H        -0.971052        -2.505716        -0.152646
 H        -2.931768         0.033566        -2.361471
 H        -2.249435         1.430702        -1.397261
 H        -0.261421        -0.345538        -3.027444
 H         1.306478         1.186043        -2.102634
 H        -0.037681         2.370731        -1.576441
 H         0.151519         2.093394         0.365122
 H         1.081540        -0.284890         1.430146
