19
Iteration:  4466
 C        -2.081033        -1.756042        -0.769269
 C        -1.393783        -0.466070        -1.087379
 C        -1.900949         0.763959        -1.794822
 C        -0.635058         0.007866        -2.347347
 C         0.662591         0.691293        -1.785089
 C         0.336071         0.818684        -0.257447
 O        -0.602153        -0.143513         0.050565
 C         1.635682         0.387653         0.479962
 O         2.449664         1.120001         1.036344
 H        -3.125914        -1.687358        -0.847365
 H        -1.723249        -2.469905        -1.554224
 H        -1.965595        -2.125725         0.343221
 H        -2.737936         0.952802        -2.461127
 H        -1.745343         1.611096        -1.110551
 H        -0.712946        -0.695281        -3.169775
 H         1.557395         0.184028        -2.023943
 H         0.868061         1.773525        -2.107803
 H        -0.055264         1.684314         0.066262
 H         1.608798        -0.721957         0.420707
