19
Iteration:  4989
 C        -1.589252        -1.856058        -0.634862
 C        -1.304538        -0.490037        -1.147208
 C        -1.850079         0.399576        -2.260686
 C        -0.304555         0.056781        -2.149119
 C         0.670173         1.018851        -1.562913
 C         0.210355         1.144950        -0.062049
 O        -1.061087         0.331439         0.047166
 C         1.258096         0.462733         0.835396
 O         2.467663         0.395219         0.515639
 H        -0.661416        -2.559651        -0.745249
 H        -1.923525        -1.681001         0.364529
 H        -2.454783        -2.424451        -1.148690
 H        -2.348518        -0.058433        -3.159271
 H        -2.368581         1.359934        -2.012946
 H         0.042707        -0.580549        -2.905978
 H         1.627739         0.570566        -1.524324
 H         0.633405         2.015270        -2.143472
 H         0.043783         2.113893         0.340116
 H         0.815318         0.266428         1.899282
