19
Iteration:   896
 C        -1.513696        -1.846221        -0.825860
 C        -1.302108        -0.414468        -0.994035
 C        -2.130699         0.452025        -1.892021
 C        -0.660766         0.311058        -2.146354
 C         0.381833         1.259927        -1.528586
 C         0.360176         1.023937         0.040450
 O        -0.881968         0.222833         0.308723
 C         1.541924         0.316228         0.625831
 O         2.624994         0.191551         0.056399
 H        -2.430066        -1.992478        -0.174177
 H        -1.639593        -2.468950        -1.764801
 H        -0.615157        -2.109513        -0.305380
 H        -2.789383        -0.069941        -2.596767
 H        -2.472393         1.464252        -1.642448
 H        -0.362213        -0.303240        -3.031087
 H         1.289440         0.854734        -1.961848
 H         0.408420         2.331683        -1.734128
 H         0.247015         1.997469         0.606476
 H         1.357175        -0.082764         1.597525
