19
Iteration:  3594charge 0 multiplicity 1
 C        -1.996701        -1.860607        -0.960124
 C        -1.345843        -0.495960        -1.049979
 C        -1.895047         0.704172        -1.814035
 C        -0.545229         0.102306        -2.177882
 C         0.596236         0.926046        -1.696419
 C         0.224731         0.913713        -0.127990
 O        -0.661014        -0.230106         0.228003
 C         1.398963         0.679021         0.716049
 O         2.635219         0.708447         0.470341
 H        -1.719843        -2.363869        -1.862281
 H        -1.650511        -2.214163         0.058983
 H        -3.114087        -1.734799        -0.972150
 H        -2.716399         0.521329        -2.533883
 H        -1.732158         1.701799        -1.312773
 H        -0.273742        -0.219758        -3.167947
 H         1.562201         0.331311        -1.776264
 H         0.891729         1.977010        -1.997306
 H        -0.088878         1.850237         0.225986
 H         1.019909         0.351254         1.686603
