19
Iteration:    39
 C        -1.858337        -1.793574        -0.948925
 C        -1.302221        -0.473237        -1.002024
 C        -1.980950         0.728006        -1.656269
 C        -0.676012         0.226288        -2.116181
 C         0.488278         0.873778        -1.565854
 C         0.245814         0.875254        -0.083748
 O        -0.734417        -0.095175         0.293093
 C         1.564948         0.506560         0.569131
 O         2.703130         0.609810         0.165841
 H        -2.441453        -1.916680         0.006255
 H        -2.622355        -1.879032        -1.784514
 H        -1.087313        -2.616504        -1.028044
 H        -2.809861         0.599615        -2.432591
 H        -2.145761         1.648002        -1.091296
 H        -0.657602        -0.203066        -3.125463
 H         1.477108         0.363042        -1.864981
 H         0.734207         2.026191        -2.002232
 H        -0.048702         1.940338         0.329570
 H         1.337915        -0.032420         1.490108
