19
Iteration:  1684
 C        -1.418295        -1.881666        -0.755408
 C        -1.273606        -0.424867        -1.005434
 C        -2.035145         0.474002        -1.901001
 C        -0.571118         0.232378        -2.028913
 C         0.351350         1.384060        -1.461815
 C         0.279190         1.019970         0.037699
 O        -0.878988         0.315240         0.253546
 C         1.471941         0.225869         0.559984
 O         2.516080         0.167544        -0.049431
 H        -2.003955        -2.075063         0.294128
 H        -1.919930        -2.401402        -1.599313
 H        -0.515004        -2.468511        -0.797701
 H        -2.717924        -0.090140        -2.535703
 H        -2.373910         1.439867        -1.464277
 H        -0.309056        -0.265388        -2.997725
 H         1.351884         1.194960        -1.823622
 H         0.029452         2.376647        -1.793610
 H         0.249019         1.892740         0.657067
 H         1.363084        -0.201415         1.635492
