19
Iteration:  4410
 C        -1.929343        -1.722491        -0.930653
 C        -1.377784        -0.390094        -1.023850
 C        -2.180807         0.604942        -1.813318
 C        -0.723299         0.076108        -2.264386
 C         0.660594         0.610054        -1.898861
 C         0.553087         0.889276        -0.278321
 O        -0.711741         0.140879         0.113364
 C         1.690541         0.330529         0.481967
 O         2.477535         0.986125         1.186446
 H        -2.894572        -2.055673        -1.334637
 H        -1.239337        -2.499418        -1.198086
 H        -1.836835        -2.049828         0.198446
 H        -2.882992        -0.048254        -2.326879
 H        -2.394414         1.661328        -1.628912
 H        -0.778148        -0.628725        -3.190847
 H         1.289935        -0.201169        -2.174856
 H         1.036493         1.531993        -2.462941
 H         0.349124         1.827860         0.021575
 H         1.788051        -0.837671         0.251541
