19
Iteration:   496
 C        -1.576215        -1.820162        -0.834895
 C        -1.253013        -0.389127        -0.926130
 C        -2.066747         0.509106        -1.878349
 C        -0.508346         0.164477        -2.064295
 C         0.229019         1.342575        -1.555385
 C         0.252266         1.057367         0.014556
 O        -0.860927         0.239940         0.349452
 C         1.529873         0.260350         0.479691
 O         2.678811         0.152516         0.058867
 H        -2.205053        -2.073653        -0.015244
 H        -2.081115        -2.120382        -1.742363
 H        -0.684188        -2.415938        -0.635675
 H        -2.791974        -0.051893        -2.571567
 H        -2.313246         1.609566        -1.579235
 H         0.023977        -0.510332        -2.750078
 H         1.295204         1.179506        -2.072847
 H        -0.308664         2.253622        -1.889253
 H         0.322062         1.995185         0.625612
 H         1.380059        -0.159684         1.465424
