19
Iteration:  4561charge 0 multiplicity 1
 C        -2.145230        -1.676767        -1.009898
 C        -1.373480        -0.425718        -1.082425
 C        -1.889831         0.845952        -1.623310
 C        -0.592694         0.068722        -2.249687
 C         0.777675         0.499136        -1.675455
 C         0.326344         0.703892        -0.238203
 O        -0.614766        -0.332591         0.088458
 C         1.570047         0.452387         0.646542
 O         2.438037         1.316705         0.725562
 H        -3.196959        -1.690556        -0.605885
 H        -2.211635        -2.213162        -1.911950
 H        -1.800778        -2.366041        -0.226046
 H        -2.727483         0.675883        -2.262577
 H        -1.940141         1.834062        -1.193287
 H        -0.835064        -0.403554        -3.201726
 H         1.600239        -0.291388        -1.639391
 H         1.225108         1.396369        -2.132114
 H         0.093402         1.840533         0.009533
 H         1.558470        -0.639123         1.130665
