19
Iteration:  4263charge 0 multiplicity 1
 C        -1.974135        -1.772442        -0.776446
 C        -1.372008        -0.392068        -0.997565
 C        -1.954879         0.615211        -1.912362
 C        -0.559389         0.043044        -2.226068
 C         0.642498         0.795360        -1.803196
 C         0.368334         0.921866        -0.232712
 O        -0.712539         0.123054         0.171660
 C         1.625516         0.230717         0.323930
 O         2.434627         0.920902         0.981350
 H        -2.179952        -2.482238        -1.728524
 H        -1.189514        -2.537859        -0.303699
 H        -2.793434        -1.793853        -0.069098
 H        -2.812269         0.224659        -2.521624
 H        -2.108300         1.664213        -1.622356
 H        -0.666581        -0.727212        -2.918450
 H         1.651926         0.387112        -2.011287
 H         0.459562         1.791968        -2.132579
 H         0.245251         1.831957         0.266758
 H         1.535947        -0.856795         0.298064
