19
Iteration:  4825
 C        -1.866508        -1.935513        -0.948461
 C        -1.290679        -0.428342        -0.984348
 C        -1.874255         0.375807        -2.097558
 C        -0.451763         0.041552        -2.165819
 C         0.709439         0.890327        -1.671956
 C         0.330930         1.070498        -0.116172
 O        -0.985293         0.305145         0.183318
 C         1.407884         0.421380         0.808677
 O         2.534465         0.692868         0.597845
 H        -2.956850        -1.633095        -1.076397
 H        -1.464715        -2.433177        -1.797507
 H        -1.734361        -2.398981         0.098403
 H        -2.592095        -0.099473        -2.785046
 H        -2.111383         1.382728        -1.672316
 H        -0.054007        -0.751316        -2.927837
 H         1.678191         0.454862        -1.702463
 H         0.572928         1.931127        -2.094343
 H         0.101474         2.185648         0.172613
 H         1.194779        -0.335857         1.596872
