19
Iteration:  1593
 C        -1.391146        -1.843270        -0.720717
 C        -1.395060        -0.402836        -0.926532
 C        -2.070377         0.514802        -1.917413
 C        -0.637938         0.300480        -2.053797
 C         0.412723         1.192743        -1.420281
 C         0.295093         0.926695         0.035402
 O        -1.016614         0.338580         0.204585
 C         1.496793         0.085441         0.424414
 O         2.662103         0.355709         0.024229
 H        -2.378210        -2.089887        -0.152197
 H        -1.165858        -2.358931        -1.678712
 H        -0.522520        -2.124505         0.009404
 H        -2.662622         0.068420        -2.715338
 H        -2.510805         1.425192        -1.575083
 H        -0.273747        -0.333202        -2.820143
 H         1.477349         1.208683        -1.843949
 H         0.241878         2.313662        -1.600842
 H         0.434586         1.766453         0.684061
 H         1.503141        -0.784048         1.161894
