19
Iteration:   479
 C        -1.549921        -1.822055        -0.718370
 C        -1.331817        -0.356718        -0.930012
 C        -2.072150         0.463320        -1.922815
 C        -0.579079         0.221335        -2.145080
 C         0.301441         1.385585        -1.510710
 C         0.345782         0.969204        -0.038395
 O        -0.934174         0.206463         0.250039
 C         1.612907         0.252784         0.587073
 O         2.677608         0.165016         0.033186
 H        -2.396079        -1.833841         0.030644
 H        -1.865600        -2.392310        -1.613817
 H        -0.559540        -2.252745        -0.422035
 H        -2.782852        -0.051372        -2.476485
 H        -2.227787         1.422093        -1.609275
 H        -0.382522        -0.383016        -3.025808
 H         1.229995         1.606052        -1.852878
 H        -0.201488         2.368533        -1.534533
 H         0.236726         1.823435         0.638320
 H         1.334178        -0.135236         1.655568
