19
Iteration:  2065charge 0 multiplicity 1
 C        -1.558836        -1.877634        -0.828421
 C        -1.247409        -0.426664        -0.875049
 C        -2.054736         0.482777        -1.820665
 C        -0.587054         0.250929        -2.107068
 C         0.382781         1.288548        -1.570759
 C         0.295792         1.061919        -0.027304
 O        -0.828178         0.203338         0.258220
 C         1.444837         0.269517         0.474315
 O         2.608967         0.258979         0.131506
 H        -2.474746        -2.029667        -0.287020
 H        -1.735003        -2.324048        -1.804661
 H        -0.799207        -2.532966        -0.266048
 H        -2.824962         0.112225        -2.485320
 H        -2.328841         1.447080        -1.422210
 H        -0.400874        -0.440297        -2.989252
 H         1.402160         1.448125        -1.925310
 H         0.020625         2.245171        -1.682379
 H         0.311356         2.069809         0.657198
 H         1.238671        -0.502359         1.217457
