19
Iteration:   729
 C        -1.549339        -1.851468        -0.775408
 C        -1.201865        -0.374814        -0.861287
 C        -2.049235         0.361890        -1.872683
 C        -0.500101         0.199283        -2.105160
 C         0.259941         1.513313        -1.507424
 C         0.357393         1.106448         0.050926
 O        -0.842191         0.282295         0.310051
 C         1.456808         0.172537         0.375052
 O         2.571789         0.127566         0.052719
 H        -2.510934        -1.907526        -0.293018
 H        -1.728517        -2.227989        -1.762744
 H        -0.886390        -2.531069        -0.224608
 H        -2.741895        -0.165897        -2.563367
 H        -2.258270         1.393049        -1.592247
 H        -0.002598        -0.504644        -2.814868
 H         1.290111         1.543403        -2.003661
 H        -0.350055         2.392432        -1.675021
 H         0.280919         2.045355         0.691743
 H         0.958916        -0.638440         0.975468
