19
Iteration:  2745charge 0 multiplicity 1
 C        -1.624530        -1.862007        -0.811778
 C        -1.419362        -0.375050        -0.907357
 C        -2.021289         0.449577        -1.979518
 C        -0.519225         0.222853        -2.080038
 C         0.420656         1.223937        -1.471353
 C         0.302267         0.960736         0.060276
 O        -0.914422         0.249665         0.304149
 C         1.599278         0.201752         0.556018
 O         2.592550         0.435246        -0.011124
 H        -2.017898        -2.113969         0.204974
 H        -2.354654        -2.146323        -1.570254
 H        -0.718300        -2.581025        -0.952966
 H        -2.725663         0.178564        -2.752031
 H        -2.204842         1.459202        -1.657155
 H         0.081750        -0.486013        -2.669919
 H         1.312690         0.759290        -1.787285
 H         0.268773         2.205226        -1.744454
 H         0.151479         1.974357         0.672904
 H         1.501620        -0.577527         1.359371
