19
Iteration:  3068
 C        -1.402656        -1.850949        -0.844951
 C        -1.183916        -0.409003        -0.926558
 C        -2.058145         0.334829        -1.814362
 C        -0.578526         0.324586        -2.062963
 C         0.229321         1.464867        -1.498430
 C         0.366618         1.127875        -0.028747
 O        -0.872897         0.439461         0.268886
 C         1.424149         0.107809         0.464500
 O         2.519002         0.019229         0.062007
 H        -2.449190        -2.247432        -0.920135
 H        -0.608946        -2.407754        -1.554828
 H        -1.123659        -2.362411         0.157995
 H        -2.638173        -0.322388        -2.407446
 H        -2.601666         1.196555        -1.434953
 H        -0.031492        -0.449602        -2.645987
 H         1.152776         1.387014        -2.057504
 H        -0.270838         2.354461        -1.772471
 H         0.550873         1.968092         0.557651
 H         1.119950        -0.169091         1.506351
