19
Iteration:  1919
 C        -1.572242        -1.831144        -0.709864
 C        -1.310913        -0.377084        -0.927397
 C        -2.132274         0.416508        -1.998694
 C        -0.566869         0.304249        -2.126736
 C         0.275005         1.412355        -1.477873
 C         0.361526         0.911667        -0.022154
 O        -0.912779         0.273295         0.222574
 C         1.565076         0.197699         0.559653
 O         2.755804         0.221262         0.095844
 H        -2.544486        -2.020241        -0.321395
 H        -1.228617        -2.335985        -1.627124
 H        -0.815169        -2.320251        -0.009416
 H        -2.817611        -0.207233        -2.633966
 H        -2.831167         1.212191        -1.716201
 H        -0.203383        -0.395794        -2.955247
 H         1.209315         1.455024        -2.046738
 H        -0.249721         2.319858        -1.501647
 H         0.134360         1.767988         0.761094
 H         1.435857        -0.313803         1.576730
