19
Iteration:  3850charge 0 multiplicity 1
 C        -2.131404        -1.740663        -1.026518
 C        -1.372547        -0.442621        -0.978082
 C        -1.870980         0.838221        -1.746929
 C        -0.684109         0.029186        -2.275450
 C         0.735691         0.335525        -1.852603
 C         0.471012         0.685297        -0.319653
 O        -0.581218        -0.059643         0.171394
 C         1.680525         0.486218         0.473332
 O         2.271683         1.295364         1.117353
 H        -2.094078        -2.208619        -0.015517
 H        -3.182577        -1.665966        -1.327334
 H        -1.770538        -2.460177        -1.652316
 H        -2.868913         0.813857        -2.241889
 H        -1.598172         1.723476        -1.172282
 H        -0.854792        -0.666909        -3.055193
 H         1.271462        -0.498220        -2.079855
 H         1.031202         1.205269        -2.377883
 H         0.193212         1.798615        -0.278704
 H         1.895185        -0.598033         0.512878
