19
Iteration:  4374charge 0 multiplicity 1
 C        -1.881788        -1.902231        -0.729033
 C        -1.394122        -0.396384        -1.024968
 C        -1.967661         0.755779        -1.873483
 C        -0.724779         0.018372        -2.246844
 C         0.590281         0.725936        -1.880854
 C         0.451327         0.949519        -0.262588
 O        -0.697915         0.094990         0.102936
 C         1.628428         0.347376         0.329342
 O         2.404489         0.879411         1.144846
 H        -2.276904        -2.527097        -1.659597
 H        -0.909170        -2.285968        -0.448185
 H        -2.586172        -1.830591         0.074016
 H        -2.790209         0.554486        -2.557020
 H        -2.008806         1.767037        -1.484977
 H        -0.713301        -0.667328        -3.110027
 H         1.501766         0.095803        -2.053974
 H         0.728787         1.634546        -2.400452
 H         0.476198         1.975349        -0.012961
 H         1.851535        -0.785611         0.168788
