19
Iteration:  4409
 C        -1.924004        -1.720294        -0.924298
 C        -1.377209        -0.389512        -1.021115
 C        -2.172862         0.602509        -1.813130
 C        -0.726984         0.079640        -2.270051
 C         0.657112         0.613075        -1.898612
 C         0.544226         0.885074        -0.276067
 O        -0.717186         0.142841         0.110269
 C         1.701002         0.342712         0.475243
 O         2.477036         0.977609         1.188536
 H        -2.909242        -2.086601        -1.387016
 H        -1.249684        -2.505745        -1.174149
 H        -1.833326        -2.053844         0.187728
 H        -2.884106        -0.032063        -2.346965
 H        -2.393730         1.650580        -1.609716
 H        -0.776553        -0.661426        -3.178965
 H         1.288337        -0.229928        -2.158606
 H         1.026344         1.526341        -2.429863
 H         0.373376         1.867879         0.011262
 H         1.791450        -0.848040         0.263898
