19
Iteration:  4485
 C        -2.198585        -1.739040        -0.914956
 C        -1.393519        -0.491867        -1.065386
 C        -1.934891         0.743341        -1.847513
 C        -0.608712         0.084178        -2.231944
 C         0.632131         0.682726        -1.721972
 C         0.398343         0.831323        -0.241673
 O        -0.547848        -0.227272         0.131544
 C         1.659954         0.378942         0.488729
 O         2.455916         1.194677         0.979933
 H        -3.300037        -1.543389        -0.824606
 H        -2.012847        -2.655413        -1.409727
 H        -2.139205        -2.145319         0.163485
 H        -2.753496         0.265228        -2.371705
 H        -1.961639         1.821100        -1.630373
 H        -0.481753        -0.267257        -3.317161
 H         1.435689        -0.067582        -1.923383
 H         1.020099         1.518656        -2.316189
 H         0.132073         1.921629         0.106916
 H         1.887669        -0.701534         0.370311
