19
Iteration:  2368charge 0 multiplicity 1
 C        -1.642378        -1.911809        -0.863656
 C        -1.316757        -0.409245        -0.924895
 C        -2.022548         0.544543        -1.830254
 C        -0.545089         0.204741        -2.102210
 C         0.488828         1.154048        -1.558236
 C         0.281133         0.993935         0.055548
 O        -0.864979         0.226421         0.340267
 C         1.508873         0.211393         0.539492
 O         2.556295         0.450739         0.018407
 H        -2.028031        -2.130278         0.190559
 H        -2.446140        -2.019212        -1.584638
 H        -0.741194        -2.515564        -1.307359
 H        -2.652642         0.071309        -2.557043
 H        -2.528017         1.475805        -1.630861
 H        -0.225971        -0.362529        -2.988743
 H         1.547879         0.939972        -1.759515
 H         0.426155         2.144066        -1.918827
 H         0.093823         1.874521         0.664925
 H         1.469754        -0.275822         1.553910
