19
Iteration:  3201charge 0 multiplicity 1
 C        -1.611409        -1.873481        -0.797993
 C        -1.223480        -0.415567        -0.914980
 C        -2.002537         0.431983        -2.004148
 C        -0.554806         0.220172        -2.088961
 C         0.302734         1.395905        -1.466347
 C         0.321586         1.059303         0.009762
 O        -0.862167         0.239798         0.243395
 C         1.522466         0.195762         0.502286
 O         2.631218         0.237512         0.133344
 H        -1.164582        -2.097251         0.194519
 H        -2.725252        -1.761848        -0.474323
 H        -1.301753        -2.659485        -1.600576
 H        -2.606915        -0.219088        -2.610310
 H        -2.467474         1.329677        -1.677627
 H        -0.167587        -0.380840        -2.859070
 H         1.168419         1.738808        -2.004000
 H        -0.313469         2.249291        -1.591148
 H         0.142783         1.971608         0.609536
 H         1.087834        -0.494976         1.296315
