19
Iteration:   125
 C        -1.666410        -1.931588        -0.855081
 C        -1.300653        -0.467392        -0.954570
 C        -2.066349         0.707427        -1.683877
 C        -0.692972         0.283480        -2.053099
 C         0.466691         1.136638        -1.627664
 C         0.412723         1.057379        -0.129314
 O        -0.651482         0.018590         0.177330
 C         1.422488         0.363073         0.584376
 O         2.565130         0.361394         0.186264
 H        -2.576570        -1.901891        -0.116544
 H        -2.059030        -2.385903        -1.908874
 H        -1.021057        -2.772116        -0.387194
 H        -2.929502         0.303350        -2.288922
 H        -2.244283         1.660116        -1.155602
 H        -0.539666        -0.219889        -3.022292
 H         1.366463         0.768231        -2.061819
 H         0.246478         2.233220        -1.971788
 H         0.100437         2.025547         0.290561
 H         1.146901        -0.097828         1.624066
