19
Iteration:  1580charge 0 multiplicity 1
 C        -1.423383        -1.921765        -0.785790
 C        -1.321560        -0.351402        -0.953791
 C        -2.099593         0.519995        -1.891738
 C        -0.558832         0.263567        -2.069899
 C         0.425944         1.224101        -1.500416
 C         0.309878         0.944774         0.058976
 O        -0.988584         0.379032         0.326701
 C         1.470305         0.065313         0.433341
 O         2.619872         0.386440         0.027067
 H        -2.301682        -2.271785        -0.364427
 H        -1.284644        -2.671886        -1.616863
 H        -0.640518        -2.088649         0.042720
 H        -2.800082         0.019057        -2.523905
 H        -2.415831         1.439320        -1.398499
 H        -0.331590        -0.302982        -2.993714
 H         1.411058         0.829401        -1.838136
 H         0.236203         2.311213        -1.823107
 H         0.286734         1.928199         0.643356
 H         1.104686        -0.878775         0.912018
