19
Iteration:  4884charge 0 multiplicity 1
 C        -1.744014        -1.783771        -0.709365
 C        -1.357183        -0.383122        -1.097547
 C        -1.848071         0.444953        -2.326701
 C        -0.380063         0.018678        -2.226462
 C         0.546198         0.988438        -1.557308
 C         0.215641         1.015785        -0.105858
 O        -0.887065         0.165345         0.156551
 C         1.381369         0.400784         0.784987
 O         2.540886         0.605126         0.623788
 H        -2.018157        -1.774665         0.292822
 H        -2.716208        -2.338906        -1.073615
 H        -1.001975        -2.550179        -0.857088
 H        -2.527706        -0.158771        -2.923714
 H        -2.089229         1.502187        -2.332246
 H        -0.056384        -0.532858        -3.037887
 H         1.624352         0.688256        -1.548364
 H         0.625614         1.943332        -2.021145
 H        -0.002068         1.982815         0.317748
 H         0.935963        -0.016985         1.754704
