19
Iteration:  3732
 C        -2.168396        -1.755620        -1.021081
 C        -1.433436        -0.491594        -1.115535
 C        -1.977347         0.842427        -1.819741
 C        -0.670354         0.051259        -2.247671
 C         0.699930         0.508485        -1.615406
 C         0.379282         0.729810        -0.091478
 O        -0.677922        -0.207035         0.099022
 C         1.741663         0.432862         0.614383
 O         2.524141         1.322721         0.806425
 H        -3.159040        -1.631845        -0.444793
 H        -2.197509        -2.177389        -2.011617
 H        -1.620116        -2.609380        -0.497304
 H        -2.835183         0.762542        -2.546886
 H        -1.799018         1.772403        -1.236569
 H        -0.532685        -0.371983        -3.236513
 H         1.507619        -0.380998        -1.549780
 H         1.105123         1.382622        -2.108000
 H         0.037859         1.690958         0.245083
 H         2.103213        -0.595270         0.666090
