19
Iteration:  1435charge 0 multiplicity 1
 C        -1.563030        -1.878719        -0.885889
 C        -1.345096        -0.406929        -0.925518
 C        -2.033912         0.563575        -1.784470
 C        -0.635706         0.152686        -2.080462
 C         0.385555         1.162470        -1.573526
 C         0.307157         1.024084        -0.006469
 O        -0.849814         0.213257         0.285377
 C         1.552806         0.257922         0.557691
 O         2.597892         0.382817         0.106151
 H        -2.484463        -2.124415        -0.359873
 H        -1.691636        -2.277334        -1.889958
 H        -0.773471        -2.444350        -0.409474
 H        -2.727760         0.128694        -2.575771
 H        -2.232901         1.644535        -1.598258
 H        -0.455298        -0.318501        -3.038766
 H         1.423756         0.909995        -1.914342
 H         0.253427         2.247547        -1.842582
 H         0.302655         1.966998         0.415662
 H         1.404689        -0.286267         1.526238
