19
Iteration:  2205charge 0 multiplicity 1
 C        -1.498661        -1.904218        -0.692580
 C        -1.350071        -0.356165        -0.940616
 C        -2.134910         0.476790        -1.919854
 C        -0.620137         0.297879        -2.109710
 C         0.381355         1.271423        -1.510672
 C         0.334927         0.945690         0.080109
 O        -0.966353         0.321570         0.182517
 C         1.506423         0.054300         0.404979
 O         2.724720         0.376263         0.173890
 H        -1.868140        -2.075847         0.245611
 H        -2.100375        -2.362100        -1.454676
 H        -0.422999        -2.415380        -0.788145
 H        -2.703902         0.000563        -2.705183
 H        -2.502674         1.456073        -1.635294
 H        -0.128566        -0.362794        -2.894944
 H         1.467572         1.358970        -1.893903
 H         0.217584         2.402333        -1.442917
 H         0.317562         1.844613         0.630441
 H         1.161697        -0.949625         0.686660
