19
Iteration:  3125
 C        -1.345445        -1.849821        -0.580292
 C        -1.244246        -0.358071        -0.977269
 C        -2.123078         0.490317        -1.932105
 C        -0.566722         0.393471        -2.137467
 C         0.414795         1.333489        -1.470458
 C         0.309908         0.925169         0.037841
 O        -1.008495         0.316080         0.230924
 C         1.481847         0.119233         0.511027
 O         2.536201         0.167213        -0.021687
 H        -2.263861        -2.279335        -0.165706
 H        -1.249388        -2.484884        -1.673495
 H        -0.374549        -2.047253         0.037523
 H        -2.585076        -0.102552        -2.720970
 H        -2.698723         1.347909        -1.688826
 H        -0.174802        -0.270093        -2.874009
 H         1.390041         1.396181        -1.965519
 H        -0.090687         2.299261        -1.555571
 H         0.291086         1.780004         0.636718
 H         1.183333        -0.531490         1.389826
