19
Iteration:  3153charge 0 multiplicity 1
 C        -1.403331        -1.882436        -0.721314
 C        -1.207500        -0.389925        -0.957785
 C        -2.087544         0.445636        -1.948248
 C        -0.532200         0.269026        -2.014114
 C         0.392307         1.281237        -1.413079
 C         0.271488         1.001855         0.075513
 O        -1.045590         0.385075         0.247701
 C         1.453699         0.133647         0.491906
 O         2.588450         0.246034        -0.067316
 H        -1.837372        -2.198030         0.226997
 H        -2.027179        -2.136738        -1.446479
 H        -0.468241        -2.335237        -0.873338
 H        -2.637857         0.089035        -2.826563
 H        -2.421566         1.440308        -1.554481
 H        -0.046733        -0.375037        -2.824562
 H         1.414871         1.054859        -1.785141
 H         0.229807         2.299137        -1.829403
 H         0.240654         1.904361         0.821223
 H         1.218746        -0.660640         1.235682
