19
Iteration:  4686
 C        -1.970354        -1.826428        -0.876721
 C        -1.340416        -0.496181        -1.107362
 C        -1.881295         0.693838        -2.031474
 C        -0.567511         0.090431        -2.284571
 C         0.649993         0.719317        -1.588169
 C         0.324295         0.772868        -0.129502
 O        -0.828904        -0.009547         0.160630
 C         1.496968         0.489844         0.856107
 O         2.585309         0.985583         0.572539
 H        -1.314828        -2.577100        -0.573199
 H        -2.553171        -1.849294         0.111941
 H        -2.567083        -2.227097        -1.675188
 H        -2.641760         0.655534        -2.837433
 H        -1.992787         1.608104        -1.364863
 H        -0.356167        -0.548287        -3.250970
 H         1.489008         0.056763        -1.741991
 H         0.842573         1.764577        -1.893943
 H         0.133382         1.937812         0.004644
 H         1.324460        -0.264773         1.628625
