19
Iteration:  4489charge 0 multiplicity 1
 C        -2.218570        -1.730605        -0.924858
 C        -1.388108        -0.481800        -1.050545
 C        -1.960308         0.729423        -1.854537
 C        -0.624492         0.072873        -2.274761
 C         0.657848         0.664922        -1.714055
 C         0.403368         0.830208        -0.231842
 O        -0.536868        -0.227730         0.168749
 C         1.689054         0.346171         0.499365
 O         2.475716         1.240064         0.978042
 H        -3.238522        -1.485371        -0.938434
 H        -2.069934        -2.612190        -1.668541
 H        -2.258769        -2.098699         0.168068
 H        -2.763943         0.306833        -2.483648
 H        -2.199369         1.790733        -1.627375
 H        -0.519072        -0.292576        -3.245472
 H         1.409196        -0.058714        -1.899121
 H         1.059544         1.591222        -2.253405
 H         0.020570         1.697397         0.107808
 H         1.849772        -0.709664         0.323978
