19
Iteration:  1304charge 0 multiplicity 1
 C        -1.569307        -1.856612        -0.829432
 C        -1.353696        -0.387994        -0.954401
 C        -2.130621         0.489439        -1.884890
 C        -0.703837         0.301455        -2.129058
 C         0.457163         1.117398        -1.512480
 C         0.366002         0.811712        -0.037554
 O        -1.001677         0.283242         0.239734
 C         1.644527         0.200069         0.634126
 O         2.701638         0.472400         0.095750
 H        -2.057935        -1.955681         0.138069
 H        -2.166538        -2.269785        -1.573228
 H        -0.625130        -2.364763        -0.670205
 H        -2.784490         0.053924        -2.675157
 H        -2.327560         1.519212        -1.445860
 H        -0.352027        -0.188111        -3.030368
 H         1.429055         0.928126        -1.851451
 H         0.365207         2.158268        -1.548637
 H         0.382446         1.879607         0.499501
 H         1.413815        -0.468057         1.539130
