19
Iteration:  1439
 C        -1.563922        -1.914002        -0.894282
 C        -1.337147        -0.385211        -0.900136
 C        -2.038719         0.570811        -1.780622
 C        -0.583749         0.182631        -2.066487
 C         0.399907         1.158445        -1.593583
 C         0.307876         1.013450        -0.047252
 O        -0.867795         0.214496         0.297605
 C         1.490401         0.264283         0.574956
 O         2.602682         0.388569         0.085707
 H        -2.414058        -2.230243        -0.322665
 H        -1.833963        -2.233281        -1.962632
 H        -0.733308        -2.452303        -0.332628
 H        -2.795281         0.199292        -2.418430
 H        -2.182593         1.593402        -1.544726
 H        -0.298168        -0.364630        -2.992577
 H         1.359484         0.908802        -1.919741
 H         0.314420         2.160133        -1.912951
 H         0.253136         2.010069         0.500255
 H         1.476818        -0.437859         1.453820
