19
Iteration:  4292charge 0 multiplicity 1
 C        -1.991973        -1.749160        -0.803103
 C        -1.402232        -0.400353        -1.007518
 C        -2.054394         0.572023        -2.076134
 C        -0.662674        -0.007972        -2.274180
 C         0.470410         0.803453        -1.731982
 C         0.388545         0.850893        -0.225411
 O        -0.729610         0.132559         0.188429
 C         1.883007         0.330304         0.303718
 O         2.540273         0.899648         1.145433
 H        -1.871292        -2.318104        -1.630619
 H        -1.588651        -2.186572         0.119501
 H        -3.094368        -1.734788        -0.512557
 H        -2.936475         0.215799        -2.620926
 H        -1.930997         1.561933        -1.659652
 H        -0.451820        -0.868401        -2.966751
 H         1.456931         0.405627        -2.068899
 H         0.464267         1.888727        -2.121460
 H         0.433489         1.980724         0.233140
 H         1.986387        -0.750046        -0.118926
