19
Iteration:  3996charge 0 multiplicity 1
 C        -2.067743        -1.798279        -0.968170
 C        -1.393806        -0.463597        -1.053843
 C        -1.977573         0.654318        -1.877242
 C        -0.610310         0.093772        -2.221901
 C         0.655327         0.573937        -1.689071
 C         0.420879         0.796293        -0.170547
 O        -0.775517         0.092772         0.164736
 C         1.676622         0.302034         0.610981
 O         2.536684         1.154806         0.821439
 H        -2.873554        -1.880721        -1.644446
 H        -1.379479        -2.593497        -1.115571
 H        -2.652459        -1.949977         0.013658
 H        -2.756226         0.507663        -2.629407
 H        -2.084585         1.629090        -1.425127
 H        -0.577410        -0.508653        -3.123022
 H         1.466215        -0.112309        -1.829040
 H         1.114993         1.457918        -2.090044
 H         0.254567         1.892179         0.178267
 H         1.874693        -0.797154         0.536043
