19
Iteration:  2207charge 0 multiplicity 1
 C        -1.473652        -1.884648        -0.700917
 C        -1.363966        -0.355485        -0.940196
 C        -2.156296         0.470792        -1.940367
 C        -0.614030         0.304919        -2.098306
 C         0.390865         1.269063        -1.505966
 C         0.347710         0.926615         0.093880
 O        -0.972936         0.328928         0.191094
 C         1.520957         0.061148         0.396863
 O         2.716140         0.377669         0.175765
 H        -1.914660        -2.154647         0.267190
 H        -2.126475        -2.365292        -1.457774
 H        -0.456259        -2.454321        -0.734694
 H        -2.744662        -0.026262        -2.689367
 H        -2.454072         1.492916        -1.667483
 H        -0.180804        -0.341798        -2.928535
 H         1.464735         1.323321        -1.871494
 H         0.195225         2.363848        -1.511114
 H         0.291892         1.806700         0.564555
 H         1.214321        -0.966628         0.689880
