19
Iteration:  4868charge 0 multiplicity 1
 C        -1.790855        -1.841676        -0.727897
 C        -1.365073        -0.437495        -1.111394
 C        -1.838538         0.496788        -2.301836
 C        -0.420951        -0.016740        -2.232433
 C         0.618343         0.979596        -1.628202
 C         0.232160         0.976572         0.002571
 O        -0.975405         0.185535         0.162818
 C         1.406037         0.485958         0.867962
 O         2.590031         0.633275         0.583794
 H        -2.396892        -1.744598         0.271550
 H        -2.273359        -2.271637        -1.546350
 H        -0.780939        -2.382711        -0.701417
 H        -2.468994         0.126316        -3.139875
 H        -2.018955         1.576666        -2.106461
 H        -0.059593        -0.941988        -2.852476
 H         1.562954         0.556232        -1.918733
 H         0.407214         2.008082        -2.044162
 H         0.048568         2.107816         0.270353
 H         1.051666        -0.357270         1.598813
