19
Iteration:  4086charge 0 multiplicity 1
 C        -2.237898        -1.875272        -1.003038
 C        -1.357687        -0.520886        -1.036295
 C        -1.962319         0.682318        -1.851254
 C        -0.602727         0.021508        -2.239407
 C         0.656687         0.812977        -1.711482
 C         0.352844         0.791717        -0.167307
 O        -0.616835        -0.126743         0.092600
 C         1.524584         0.709363         0.893497
 O         2.722179         0.890186         0.630700
 H        -2.244519        -2.371328        -1.944721
 H        -2.124355        -2.465924         0.012423
 H        -3.366765        -1.522234        -1.033224
 H        -2.833411         0.459370        -2.415968
 H        -1.947622         1.631512        -1.340612
 H        -0.471152        -0.501569        -3.204008
 H         1.542127         0.196407        -1.976623
 H         0.896483         1.779298        -2.287993
 H         0.124170         1.992935         0.225085
 H         1.279807         0.610859         1.976935
