19
Iteration:  2675
 C        -1.585928        -1.824268        -0.801685
 C        -1.331261        -0.365445        -0.893900
 C        -2.165643         0.455516        -1.782857
 C        -0.669880         0.262008        -2.160551
 C         0.298810         1.287191        -1.679323
 C         0.324594         1.032265        -0.107691
 O        -0.771665         0.188778         0.200798
 C         1.535179         0.215663         0.502575
 O         2.768348         0.298101         0.353162
 H        -2.466355        -2.195843        -0.360722
 H        -1.430802        -2.308552        -1.803683
 H        -0.856129        -2.326670        -0.283742
 H        -2.991247         0.074127        -2.441620
 H        -2.332506         1.486425        -1.406403
 H        -0.500336        -0.464326        -2.964849
 H         1.302881         0.950791        -2.033576
 H        -0.075531         2.350578        -1.817020
 H         0.397611         2.021786         0.426857
 H         1.146065        -0.646442         1.097904
