19
Iteration:  4001
 C        -2.029617        -1.795270        -0.909931
 C        -1.371733        -0.454750        -1.055472
 C        -1.972029         0.670997        -1.879553
 C        -0.641171         0.119521        -2.256561
 C         0.676768         0.547423        -1.700937
 C         0.399582         0.795889        -0.185859
 O        -0.838387         0.069507         0.188440
 C         1.684022         0.323939         0.625263
 O         2.537943         1.139408         0.806473
 H        -2.711953        -1.884599        -1.856953
 H        -1.330936        -2.706485        -1.066156
 H        -2.638831        -1.895676        -0.065376
 H        -2.762229         0.649194        -2.639178
 H        -2.078905         1.660561        -1.385818
 H        -0.586152        -0.504507        -3.158209
 H         1.573594        -0.130254        -1.908433
 H         1.196689         1.510539        -2.033681
 H         0.291439         1.765586         0.182398
 H         1.906457        -0.793223         0.583673
