19
Iteration:  2645
 C        -1.535641        -1.924069        -0.829479
 C        -1.358523        -0.386640        -0.914149
 C        -2.200884         0.537224        -1.785839
 C        -0.760837         0.296924        -2.125112
 C         0.456138         1.106771        -1.573045
 C         0.359251         0.888082        -0.072005
 O        -0.897618         0.361330         0.225021
 C         1.568729         0.147934         0.511466
 O         2.727654         0.450832         0.257063
 H        -2.515881        -2.322399        -0.585396
 H        -1.302952        -2.292082        -1.968201
 H        -0.608576        -2.473429        -0.255607
 H        -2.866084         0.301526        -2.593526
 H        -2.544000         1.460947        -1.349602
 H        -0.548130        -0.286024        -3.014887
 H         1.397736         0.840782        -2.011052
 H         0.364415         2.115636        -1.824415
 H         0.649709         1.937925         0.423111
 H         1.354578        -0.777180         1.121746
