19
Iteration:   369charge 0 multiplicity 1
 C        -1.475694        -1.798140        -0.676183
 C        -1.191882        -0.335726        -1.003062
 C        -2.193851         0.325762        -1.944013
 C        -0.646877         0.409206        -2.143345
 C         0.350340         1.357067        -1.508512
 C         0.338805         0.970184         0.050969
 O        -0.932928         0.331443         0.218122
 C         1.547472         0.090448         0.515472
 O         2.665372         0.195584         0.099387
 H        -2.128110        -1.814862         0.325533
 H        -2.153354        -2.307575        -1.395388
 H        -0.619414        -2.543563        -0.340555
 H        -2.796646        -0.151415        -2.651860
 H        -2.661809         1.197886        -1.667216
 H        -0.161336        -0.259318        -2.883517
 H         1.257084         1.262505        -1.978725
 H         0.070995         2.408351        -1.585620
 H         0.402511         1.855492         0.692984
 H         1.335843        -0.817071         1.091701
