19
Iteration:  1519charge 0 multiplicity 1
 C        -1.610147        -1.878192        -0.732338
 C        -1.318154        -0.428272        -0.965624
 C        -2.088817         0.448058        -1.990114
 C        -0.659493         0.294493        -2.156743
 C         0.216405         1.381818        -1.509278
 C         0.340910         0.954143        -0.042753
 O        -0.846740         0.230841         0.197025
 C         1.582898         0.268220         0.577301
 O         2.814449         0.238907         0.202949
 H        -2.309645        -1.799501         0.244909
 H        -2.089283        -2.249772        -1.605823
 H        -0.631729        -2.333763        -0.694311
 H        -2.783740        -0.234713        -2.517433
 H        -2.548465         1.350842        -1.600597
 H        -0.322872        -0.373501        -2.899055
 H         1.175078         1.281603        -2.068794
 H        -0.306722         2.327162        -1.393715
 H         0.336243         1.946492         0.634596
 H         1.446786        -0.431007         1.519744
