19
Iteration:  2165
 C        -1.591914        -1.856795        -0.762213
 C        -1.199892        -0.433344        -0.929464
 C        -2.038615         0.435844        -1.832995
 C        -0.566666         0.286917        -2.166178
 C         0.294301         1.422775        -1.539920
 C         0.333916         1.062291        -0.066687
 O        -0.815892         0.228545         0.268996
 C         1.421991         0.159852         0.457963
 O         2.643071         0.254411         0.186716
 H        -2.128317        -2.149363         0.206707
 H        -2.271051        -2.238840        -1.581286
 H        -0.705499        -2.505307        -0.727310
 H        -2.724259        -0.128616        -2.450748
 H        -2.362394         1.433465        -1.503009
 H        -0.244765        -0.531076        -2.845198
 H         1.212131         1.485696        -2.106682
 H        -0.256867         2.312992        -1.734428
 H         0.230098         1.928730         0.691962
 H         1.188925        -0.777638         1.022454
