19
Iteration:  3851
 C        -2.140848        -1.745419        -1.032671
 C        -1.372309        -0.436975        -0.971920
 C        -1.867176         0.834724        -1.754155
 C        -0.682499         0.029494        -2.266542
 C         0.728028         0.341060        -1.852149
 C         0.472100         0.685702        -0.324984
 O        -0.581117        -0.060970         0.180314
 C         1.675162         0.492663         0.467658
 O         2.277107         1.292420         1.121934
 H        -2.079344        -2.218701        -0.000616
 H        -3.148344        -1.690246        -1.332362
 H        -1.743652        -2.483892        -1.660432
 H        -2.884408         0.828445        -2.255357
 H        -1.568056         1.743820        -1.184098
 H        -0.875202        -0.654071        -3.072424
 H         1.279223        -0.521044        -2.098209
 H         1.048613         1.210885        -2.363961
 H         0.207625         1.761323        -0.335640
 H         1.885299        -0.585624         0.506283
