19
Iteration:  1064charge 0 multiplicity 1
 C        -1.464711        -1.909622        -0.774948
 C        -1.418562        -0.419136        -0.991868
 C        -2.159445         0.571098        -1.809296
 C        -0.655974         0.238164        -2.052410
 C         0.535242         1.095776        -1.536847
 C         0.300225         0.990143         0.032890
 O        -0.965508         0.314050         0.227894
 C         1.508161         0.118724         0.446024
 O         2.699461         0.444317         0.145738
 H        -2.396502        -2.252946        -0.199077
 H        -1.615574        -2.445096        -1.691999
 H        -0.447432        -2.156431        -0.316007
 H        -2.801688         0.290644        -2.674970
 H        -2.348043         1.580820        -1.391565
 H        -0.603482        -0.188542        -3.053338
 H         1.521169         0.869466        -2.015720
 H         0.416568         2.268130        -1.807042
 H         0.376036         1.971830         0.567808
 H         1.414293        -0.803739         1.033628
