19
Iteration:  4403
 C        -1.905759        -1.765096        -0.868688
 C        -1.378744        -0.366378        -1.013572
 C        -2.112492         0.581368        -1.836059
 C        -0.756364         0.097424        -2.313835
 C         0.621859         0.621210        -1.871477
 C         0.467880         0.861541        -0.290370
 O        -0.729893         0.158363         0.099595
 C         1.763802         0.378588         0.432680
 O         2.474093         0.927475         1.200049
 H        -2.735895        -2.015206        -1.494448
 H        -1.141831        -2.561085        -1.221115
 H        -2.048922        -1.990640         0.178072
 H        -2.930036         0.223281        -2.484866
 H        -2.351069         1.577869        -1.440297
 H        -0.729972        -0.701766        -2.975120
 H         1.307160        -0.262738        -1.998275
 H         1.003051         1.572467        -2.292833
 H         0.477321         2.066533        -0.106011
 H         1.844571        -0.677969         0.395877
