19
Iteration:  3535
 C        -1.722948        -1.868063        -0.987566
 C        -1.421313        -0.409158        -1.070742
 C        -2.077859         0.626603        -1.894981
 C        -0.623155         0.263262        -2.103153
 C         0.570847         0.828505        -1.568086
 C         0.219080         0.858700        -0.082217
 O        -0.821525         0.035636         0.191591
 C         1.519589         0.596585         0.743888
 O         2.764149         0.597710         0.404483
 H        -0.850826        -2.590858        -0.536546
 H        -2.552271        -2.124859        -0.298207
 H        -2.139076        -2.308482        -2.018579
 H        -2.788887         0.165903        -2.580455
 H        -2.370352         1.609139        -1.608006
 H        -0.537436        -0.226929        -3.100232
 H         1.355153         0.159968        -1.773381
 H         0.835026         1.845034        -1.824544
 H         0.009273         1.813792         0.187180
 H         1.395606         0.258231         1.767207
