19
Iteration:  3935
 C        -2.219340        -1.695642        -0.704915
 C        -1.349210        -0.446230        -1.092915
 C        -1.932387         0.697533        -1.896848
 C        -0.596166        -0.063585        -2.327773
 C         0.648089         0.771737        -1.737281
 C         0.456341         0.806931        -0.305276
 O        -0.577983        -0.186876         0.028545
 C         1.623355         0.360030         0.559733
 O         2.428951         1.156065         1.038167
 H        -3.262047        -1.351522        -0.539497
 H        -2.324683        -2.477427        -1.603365
 H        -1.757162        -2.139856         0.173844
 H        -2.850434         0.659976        -2.493540
 H        -1.670575         1.669235        -1.519579
 H        -0.514669        -0.692087        -3.165108
 H         1.710651         0.276159        -1.925988
 H         0.625050         1.753175        -2.334872
 H         0.122267         1.849205        -0.086710
 H         1.749372        -0.728035         0.702142
