19
Iteration:   339
 C        -1.509345        -1.931349        -0.605955
 C        -1.257801        -0.418969        -0.952724
 C        -2.066631         0.486487        -1.845565
 C        -0.540568         0.345767        -2.107621
 C         0.356038         1.382464        -1.475646
 C         0.293568         0.950571        -0.053158
 O        -0.924816         0.286308         0.185200
 C         1.437448         0.166213         0.391327
 O         2.648970         0.213357         0.099641
 H        -2.220513        -1.770644         0.230068
 H        -2.005663        -2.597572        -1.382491
 H        -0.565644        -2.441840        -0.345957
 H        -2.695027         0.106197        -2.622132
 H        -2.323654         1.496077        -1.574771
 H        -0.168829        -0.090264        -3.040633
 H         1.433988         1.427639        -1.967579
 H        -0.032329         2.440214        -1.636161
 H         0.375408         1.817679         0.653895
 H         1.065566        -0.674483         1.104640
