19
Iteration:  4946
 C        -1.694478        -1.894998        -0.840204
 C        -1.320895        -0.395892        -1.023946
 C        -1.893332         0.349988        -2.237398
 C        -0.386853        -0.078761        -2.090767
 C         0.614617         1.043909        -1.624113
 C         0.236398         1.100396        -0.151133
 O        -0.959604         0.373487         0.116748
 C         1.318456         0.494765         0.861817
 O         2.540837         0.438790         0.629937
 H        -0.978050        -2.251084        -0.127903
 H        -2.704081        -1.855121        -0.574638
 H        -1.373317        -2.404138        -1.789767
 H        -2.541485        -0.093397        -3.046052
 H        -2.114018         1.410104        -1.997668
 H        -0.111215        -0.779975        -2.830465
 H         1.633301         0.793244        -1.801984
 H         0.380035         1.993294        -2.226888
 H         0.109781         2.187598         0.159323
 H         0.910048         0.061212         1.762419
