19
Iteration:  4847charge 0 multiplicity 1
 C        -1.834571        -1.867479        -0.883466
 C        -1.340092        -0.473234        -1.063174
 C        -1.845469         0.453460        -2.099654
 C        -0.410824        -0.071951        -2.145162
 C         0.632638         0.953563        -1.546428
 C         0.261145         0.937962        -0.130975
 O        -0.965701         0.323677         0.102661
 C         1.402960         0.419182         0.768944
 O         2.558148         0.694386         0.592667
 H        -2.839729        -1.718741        -0.407664
 H        -1.831042        -2.267894        -1.875456
 H        -1.045306        -2.356106        -0.208539
 H        -2.544564        -0.039253        -2.809683
 H        -2.055310         1.525156        -1.861212
 H         0.008865        -0.701278        -3.017401
 H         1.616525         0.547387        -1.602200
 H         0.475789         1.945878        -2.052410
 H         0.229873         2.051503         0.289352
 H         1.114753         0.000964         1.817357
