19
Iteration:  3892charge 0 multiplicity 1
 C        -2.114341        -1.691660        -0.884615
 C        -1.390362        -0.453015        -1.096130
 C        -1.993344         0.739391        -1.830751
 C        -0.703449         0.009580        -2.323682
 C         0.661723         0.470225        -1.799281
 C         0.462274         0.732751        -0.311554
 O        -0.574336        -0.087170         0.083024
 C         1.708944         0.439839         0.542744
 O         2.391371         1.250266         1.156357
 H        -2.587738        -1.580274         0.108709
 H        -3.001890        -1.777166        -1.649280
 H        -1.454910        -2.546031        -0.965383
 H        -2.932940         0.603140        -2.372384
 H        -1.720654         1.679948        -1.412647
 H        -0.667110        -0.610228        -3.171681
 H         1.279910        -0.455319        -1.931104
 H         1.199321         1.398074        -2.115612
 H         0.153561         1.846543        -0.071815
 H         2.089764        -0.629288         0.407013
