19
Iteration:   957charge 0 multiplicity 1
 C        -1.651085        -1.872906        -0.798437
 C        -1.262782        -0.401904        -0.979182
 C        -2.094170         0.474942        -1.875082
 C        -0.593121         0.234312        -2.088422
 C         0.417259         1.265974        -1.531713
 C         0.338164         1.011728         0.042194
 O        -0.802513         0.203995         0.252204
 C         1.535694         0.300489         0.590804
 O         2.555330         0.306375         0.039067
 H        -2.358800        -2.052314        -0.055015
 H        -1.943144        -2.236145        -1.776498
 H        -0.813641        -2.588904        -0.538360
 H        -2.646600        -0.121887        -2.632653
 H        -2.435473         1.503934        -1.583039
 H        -0.357632        -0.306303        -2.978360
 H         1.501342         0.859232        -1.673874
 H         0.307312         2.382428        -1.693401
 H         0.143675         1.967535         0.615413
 H         1.282362        -0.239261         1.519360
