19
Iteration:   629
 C        -1.510192        -1.961730        -0.801046
 C        -1.282076        -0.423082        -0.906713
 C        -2.107674         0.445760        -1.761115
 C        -0.585581         0.286946        -2.033050
 C         0.379642         1.351995        -1.568060
 C         0.375076         1.078195        -0.040989
 O        -0.892553         0.366993         0.218154
 C         1.452866         0.234955         0.450853
 O         2.632844         0.129903         0.114263
 H        -2.275918        -2.182868        -0.108873
 H        -1.857707        -2.121427        -1.740907
 H        -0.687024        -2.648110        -0.561366
 H        -2.667827         0.050991        -2.579365
 H        -2.617988         1.279440        -1.340328
 H        -0.291570        -0.089260        -3.014535
 H         1.478270         1.170808        -1.969928
 H        -0.096488         2.308702        -1.870096
 H         0.457767         1.962469         0.659575
 H         1.054178        -0.353372         1.317954
