19
Iteration:   727
 C        -1.555241        -1.848298        -0.784686
 C        -1.212106        -0.378550        -0.879907
 C        -2.043132         0.346697        -1.859418
 C        -0.485710         0.200464        -2.097964
 C         0.257018         1.503212        -1.491615
 C         0.377106         1.116469         0.052486
 O        -0.854952         0.294870         0.301673
 C         1.440620         0.181879         0.374632
 O         2.580259         0.130714         0.045174
 H        -2.536422        -1.887436        -0.266949
 H        -1.728221        -2.149365        -1.789761
 H        -0.840637        -2.598486        -0.216083
 H        -2.763406        -0.157193        -2.453168
 H        -2.285821         1.346375        -1.547262
 H         0.052863        -0.469730        -2.827722
 H         1.246934         1.482142        -2.011779
 H        -0.271791         2.300372        -1.619638
 H         0.267649         2.023546         0.635868
 H         0.919228        -0.677786         0.973595
