19
Iteration:  4414charge 0 multiplicity 1
 C        -1.934311        -1.752402        -0.923888
 C        -1.381275        -0.379047        -1.032182
 C        -2.197057         0.610120        -1.821197
 C        -0.716446         0.063361        -2.253171
 C         0.665601         0.618886        -1.894678
 C         0.572212         0.880729        -0.302773
 O        -0.684211         0.131551         0.124645
 C         1.668211         0.287165         0.511608
 O         2.469606         1.008092         1.171143
 H        -2.955773        -1.910472        -1.188286
 H        -1.173094        -2.486780        -1.366107
 H        -1.926848        -1.972925         0.129646
 H        -2.936252        -0.025644        -2.309214
 H        -2.391014         1.670253        -1.667538
 H        -0.758633        -0.455496        -3.146182
 H         1.396317        -0.175126        -2.211154
 H         1.016742         1.473108        -2.504251
 H         0.250329         1.941741         0.076957
 H         1.795703        -0.730532         0.271623
