19
Iteration:  3159
 C        -1.405593        -1.876506        -0.729773
 C        -1.229724        -0.383000        -0.943562
 C        -2.059290         0.461049        -1.929669
 C        -0.507880         0.260377        -2.009628
 C         0.399159         1.263925        -1.460078
 C         0.254957         1.043449         0.090450
 O        -1.052924         0.353120         0.256036
 C         1.467751         0.164429         0.449265
 O         2.589793         0.232842        -0.037499
 H        -1.749692        -2.138483         0.287771
 H        -2.245350        -2.010894        -1.632860
 H        -0.499747        -2.518500        -1.059654
 H        -2.576582        -0.085799        -2.731861
 H        -2.420570         1.426660        -1.586303
 H        -0.194475        -0.490752        -2.680553
 H         1.458178         1.193322        -1.725112
 H         0.083125         2.311022        -1.665200
 H         0.277852         1.887243         0.708412
 H         1.240702        -0.665078         1.170309
