19
Iteration:  2918charge 0 multiplicity 1
 C        -1.394835        -1.920145        -0.651137
 C        -1.283442        -0.453310        -0.961544
 C        -2.039178         0.510229        -1.997846
 C        -0.565808         0.352588        -2.100679
 C         0.350930         1.369848        -1.514932
 C         0.269937         0.995478        -0.004767
 O        -0.998583         0.334500         0.252590
 C         1.526308         0.132654         0.583484
 O         2.547297         0.164901         0.000394
 H        -1.644671        -1.932394         0.335651
 H        -2.198672        -2.519351        -1.035386
 H        -0.392473        -2.318345        -0.746677
 H        -2.470117        -0.042205        -2.804767
 H        -2.458903         1.444616        -1.655685
 H        -0.109797        -0.225966        -2.931276
 H         1.447910         1.262108        -1.869948
 H         0.178443         2.522180        -1.529908
 H         0.183730         1.931711         0.641355
 H         1.310931        -0.478527         1.498304
