19
Iteration:  3233
 C        -1.587757        -1.913545        -0.725160
 C        -1.240589        -0.437160        -1.027580
 C        -2.047319         0.455986        -2.050610
 C        -0.623858         0.313862        -2.107244
 C         0.381546         1.338355        -1.461244
 C         0.312639         0.956585        -0.027618
 O        -0.959801         0.266359         0.239985
 C         1.544949         0.198973         0.593291
 O         2.699618         0.318379         0.136927
 H        -0.703154        -2.444171        -0.476381
 H        -2.226371        -1.820221         0.152323
 H        -2.297767        -2.451876        -1.426739
 H        -2.643954        -0.084243        -2.754447
 H        -2.465344         1.357907        -1.662466
 H        -0.236854        -0.303595        -2.860860
 H         1.362639         1.176874        -1.896256
 H         0.031359         2.340842        -1.640625
 H         0.116531         1.741278         0.817771
 H         1.357001        -0.338383         1.573829
