19
Iteration:  3431
 C        -1.776687        -1.864539        -0.865884
 C        -1.377922        -0.392540        -1.067816
 C        -2.126456         0.563742        -1.986532
 C        -0.536740         0.173469        -2.187461
 C         0.538763         1.074918        -1.551136
 C         0.313743         0.768141        -0.029576
 O        -0.944429         0.119372         0.273197
 C         1.623927         0.366106         0.654302
 O         2.719932         0.653196         0.324018
 H        -2.640949        -1.932788        -0.251385
 H        -2.017323        -2.452232        -1.840702
 H        -1.001424        -2.314106        -0.239362
 H        -2.914732         0.194690        -2.710067
 H        -2.328721         1.601177        -1.567431
 H        -0.212317        -0.595287        -2.980545
 H         1.647927         0.775170        -1.806483
 H         0.544834         2.226190        -1.647136
 H         0.219377         1.621358         0.528042
 H         1.395982        -0.264910         1.560364
