19
Iteration:  3351
 C        -1.733462        -1.915055        -0.852254
 C        -1.332684        -0.461481        -1.041842
 C        -2.133871         0.512453        -1.958009
 C        -0.616839         0.228272        -2.159294
 C         0.416159         1.163172        -1.571313
 C         0.373468         1.020538        -0.087492
 O        -0.805919         0.094818         0.204940
 C         1.576822         0.355752         0.654167
 O         2.733209         0.451045         0.386902
 H        -2.365111        -2.263751        -1.691806
 H        -0.996779        -2.539315        -0.546403
 H        -2.336857        -1.662550         0.044274
 H        -2.889039         0.188394        -2.641195
 H        -2.264574         1.555895        -1.685531
 H        -0.245853        -0.457560        -2.884888
 H         1.395079         1.203980        -2.061531
 H        -0.036994         2.237404        -1.609214
 H         0.201883         1.860425         0.473420
 H         1.120793        -0.219327         1.518181
