19
Iteration:  1566
 C        -1.459368        -1.898357        -0.748379
 C        -1.269831        -0.428563        -0.889644
 C        -2.097894         0.476610        -1.822494
 C        -0.608296         0.255016        -2.112957
 C         0.441613         1.278108        -1.554136
 C         0.289378         1.040132         0.009038
 O        -0.919531         0.322722         0.299756
 C         1.471588         0.096215         0.385276
 O         2.554531         0.341698         0.107940
 H        -2.470285        -2.095360        -0.529193
 H        -1.289882        -2.148425        -1.819742
 H        -0.742277        -2.463960        -0.243736
 H        -2.789433         0.100321        -2.602728
 H        -2.282586         1.529249        -1.494482
 H        -0.231968        -0.423842        -2.927648
 H         1.470557         0.983062        -1.759872
 H         0.160213         2.329835        -1.794073
 H         0.448747         2.029185         0.674481
 H         1.356161        -0.811593         0.966139
