19
Iteration:  4469
 C        -2.119566        -1.771614        -0.766711
 C        -1.370201        -0.460402        -1.083886
 C        -1.888183         0.743479        -1.803985
 C        -0.643409         0.026222        -2.320240
 C         0.658450         0.698943        -1.771327
 C         0.361172         0.810510        -0.238331
 O        -0.595938        -0.159606         0.039111
 C         1.616550         0.404039         0.450373
 O         2.454614         1.129639         1.033311
 H        -3.185961        -1.685231        -0.922911
 H        -1.762142        -2.433117        -1.607685
 H        -1.899976        -1.997288         0.261469
 H        -2.749943         0.914248        -2.452442
 H        -1.774205         1.628865        -1.175141
 H        -0.677875        -0.648309        -3.119668
 H         1.553734         0.048794        -1.967855
 H         0.837789         1.737106        -2.096683
 H        -0.074588         1.782389         0.092808
 H         1.627681        -0.785145         0.448359
