19
Iteration:  3271
 C        -1.490578        -1.849107        -0.877028
 C        -1.254415        -0.445971        -0.964745
 C        -2.006414         0.567489        -1.897702
 C        -0.604579         0.190324        -2.087492
 C         0.438558         1.139753        -1.589841
 C         0.268482         1.012050         0.002513
 O        -0.946513         0.273422         0.310454
 C         1.416065         0.260330         0.563723
 O         2.592622         0.392366         0.183862
 H        -0.778550        -2.553416        -1.486447
 H        -1.323096        -2.272843         0.226255
 H        -2.392124        -2.158089        -1.371243
 H        -2.902504         0.071644        -2.341994
 H        -2.196228         1.602300        -1.559921
 H        -0.333822        -0.613050        -2.853997
 H         1.447602         0.792974        -1.853813
 H         0.484688         2.183578        -1.980263
 H         0.341898         1.925769         0.507332
 H         1.105915        -0.635919         1.205776
