19
Iteration:  1142charge 0 multiplicity 1
 C        -1.705308        -1.906987        -0.791106
 C        -1.247164        -0.507979        -0.974103
 C        -2.121271         0.506662        -1.787415
 C        -0.549833         0.188528        -2.155374
 C         0.363307         1.350202        -1.608853
 C         0.341729         1.100746        -0.114249
 O        -0.861464         0.245941         0.345273
 C         1.514246         0.151655         0.359798
 O         2.745046         0.371500         0.321919
 H        -2.241450        -2.004621         0.201925
 H        -2.373494        -2.123448        -1.662726
 H        -0.879356        -2.719942        -0.656868
 H        -2.750767        -0.071203        -2.525292
 H        -2.537994         1.434993        -1.289693
 H        -0.302940        -0.365571        -3.082304
 H         1.407919         1.380482        -2.077130
 H        -0.129123         2.429725        -1.793421
 H         0.337988         1.933390         0.492344
 H         1.196067        -0.878259         0.770959
