19
Iteration:  4258
 C        -1.958489        -1.802155        -0.765626
 C        -1.341542        -0.412516        -1.030144
 C        -1.951208         0.600721        -1.900971
 C        -0.561819         0.047545        -2.232099
 C         0.629664         0.803148        -1.774167
 C         0.379128         0.903540        -0.281103
 O        -0.704961         0.135661         0.174365
 C         1.574832         0.260649         0.353922
 O         2.446723         0.901480         0.964446
 H        -2.324132        -2.302610        -1.586037
 H        -1.195989        -2.477954        -0.478874
 H        -2.806705        -1.768615        -0.017065
 H        -2.849877         0.436063        -2.476662
 H        -2.079617         1.602264        -1.487909
 H        -0.657032        -0.731883        -3.053038
 H         1.630317         0.394318        -1.963215
 H         0.533394         1.873470        -2.173874
 H         0.152742         1.962206         0.228955
 H         1.491260        -0.891475         0.559060
