19
Iteration:  3470
 C        -1.824359        -1.944313        -0.901809
 C        -1.338538        -0.434805        -1.010559
 C        -2.088264         0.547297        -1.892614
 C        -0.616281         0.138486        -2.214611
 C         0.527813         1.141231        -1.685795
 C         0.304505         1.049187        -0.088628
 O        -0.709752         0.060561         0.228724
 C         1.518368         0.418720         0.622249
 O         2.695974         0.519937         0.524143
 H        -2.013451        -2.063035         0.232551
 H        -2.771325        -2.027242        -1.413831
 H        -1.077519        -2.675281        -1.374647
 H        -3.037218         0.254735        -2.318926
 H        -2.121690         1.520985        -1.466452
 H        -0.308790        -0.461321        -3.082616
 H         1.492071         0.797175        -1.923201
 H         0.276661         2.068519        -2.136284
 H         0.019066         2.107409         0.334955
 H         0.979913        -0.312945         1.363451
