19
Iteration:  1247charge 0 multiplicity 1
 C        -1.638748        -1.884637        -0.830415
 C        -1.253884        -0.452796        -0.850511
 C        -2.070719         0.529106        -1.795613
 C        -0.652596         0.188367        -2.126727
 C         0.316072         1.326546        -1.662084
 C         0.311016         1.026302        -0.185456
 O        -0.737572         0.191865         0.277698
 C         1.502759         0.171331         0.389324
 O         2.688532         0.363623         0.345861
 H        -2.656584        -1.903533        -0.373273
 H        -1.709420        -2.262090        -1.765565
 H        -0.975864        -2.430213        -0.253037
 H        -3.016805         0.132708        -2.221808
 H        -2.323673         1.484490        -1.290930
 H        -0.402295        -0.285176        -3.113352
 H         1.408545         1.342593        -1.823571
 H        -0.102056         2.304737        -1.869888
 H         0.349609         1.983716         0.513004
 H         1.060694        -0.623192         1.151812
