19
Iteration:  3759charge 0 multiplicity 1
 C        -2.308761        -1.652915        -0.990212
 C        -1.374325        -0.515181        -0.998096
 C        -1.844800         0.735486        -1.768996
 C        -0.617412        -0.005101        -2.204046
 C         0.729814         0.649503        -1.852743
 C         0.408641         0.697433        -0.219657
 O        -0.559211        -0.283057         0.162854
 C         1.618845         0.450859         0.601605
 O         2.423746         1.308526         0.900431
 H        -2.776894        -1.641698        -0.055109
 H        -2.880008        -1.624444        -1.954111
 H        -1.836357        -2.626779        -1.122991
 H        -2.678925         0.503900        -2.378485
 H        -1.608929         1.744601        -1.483993
 H        -0.537287        -0.445684        -3.226102
 H         1.547514         0.055067        -2.040128
 H         0.828691         1.668509        -2.290719
 H        -0.056443         1.730310         0.050712
 H         1.833666        -0.595966         0.891224
