19
Iteration:  3932
 C        -2.233013        -1.701247        -0.705284
 C        -1.361873        -0.449946        -1.101918
 C        -1.934490         0.678081        -1.893567
 C        -0.602620        -0.036375        -2.298389
 C         0.671833         0.773267        -1.741913
 C         0.455472         0.790471        -0.315203
 O        -0.557166        -0.173932         0.019449
 C         1.614205         0.350075         0.576353
 O         2.410308         1.164413         1.033818
 H        -3.201060        -1.395990        -0.457796
 H        -2.379489        -2.402893        -1.568942
 H        -1.742036        -2.197761         0.220490
 H        -2.779885         0.742467        -2.530609
 H        -1.794935         1.670338        -1.526114
 H        -0.483506        -0.682240        -3.169840
 H         1.674034         0.303711        -2.006988
 H         0.753071         1.726195        -2.317764
 H         0.186208         1.772259        -0.153001
 H         1.813088        -0.740094         0.629173
