19
Iteration:   499
 C        -1.586404        -1.856666        -0.843432
 C        -1.266600        -0.377525        -0.900000
 C        -2.062093         0.496595        -1.885284
 C        -0.510067         0.183702        -2.065476
 C         0.238256         1.314745        -1.545168
 C         0.247179         1.069568         0.011990
 O        -0.833565         0.254710         0.352033
 C         1.541497         0.280443         0.473837
 O         2.655588         0.153126         0.055027
 H        -2.294228        -2.029668        -0.053805
 H        -2.067868        -2.136920        -1.705040
 H        -0.655454        -2.437351        -0.793137
 H        -2.716520        -0.024569        -2.538845
 H        -2.219013         1.489083        -1.579439
 H        -0.007485        -0.518765        -2.733234
 H         1.241729         1.216921        -2.038935
 H        -0.207361         2.323362        -1.843975
 H         0.314161         2.005368         0.593059
 H         1.243810        -0.262083         1.413757
