19
Iteration:  3488
 C        -1.759278        -1.842746        -0.890960
 C        -1.273404        -0.484620        -0.990313
 C        -1.993895         0.603055        -1.743559
 C        -0.604425         0.156841        -2.153284
 C         0.454849         1.062272        -1.731475
 C         0.313447         1.058030        -0.226320
 O        -0.767709         0.004499         0.163050
 C         1.469652         0.437508         0.637486
 O         2.634761         0.515748         0.540967
 H        -1.593008        -2.215467         0.167019
 H        -2.893870        -2.037183        -1.081160
 H        -1.251979        -2.490163        -1.566245
 H        -2.537095         0.321518        -2.622329
 H        -2.314537         1.509095        -1.212403
 H        -0.478354        -0.309962        -3.110442
 H         1.500598         0.675934        -1.951029
 H         0.391658         2.120288        -2.073400
 H         0.018753         1.917933         0.197515
 H         1.013127        -0.214791         1.368946
