19
Iteration:  1816charge 0 multiplicity 1
 C        -1.350398        -1.858695        -0.718086
 C        -1.322799        -0.336266        -0.988250
 C        -2.116122         0.430495        -2.024447
 C        -0.573772         0.294736        -2.062683
 C         0.387925         1.327008        -1.445494
 C         0.287299         0.920840         0.044337
 O        -1.001068         0.345432         0.283068
 C         1.549547         0.198520         0.514692
 O         2.597829         0.175735        -0.002109
 H        -2.018910        -2.137345         0.188381
 H        -2.024883        -2.281833        -1.481579
 H        -0.407213        -2.295308        -0.703177
 H        -2.836645        -0.128942        -2.623343
 H        -2.372306         1.346429        -1.532991
 H        -0.298712        -0.269048        -2.930810
 H         1.394500         1.234352        -1.790905
 H        -0.095151         2.288837        -1.686140
 H         0.201340         1.889293         0.804281
 H         1.568295        -0.220568         1.601294
