19
Iteration:   611charge 0 multiplicity 1
 C        -1.542672        -1.881549        -0.903047
 C        -1.154607        -0.456066        -0.912397
 C        -2.129420         0.373824        -1.785139
 C        -0.675546         0.263952        -2.104715
 C         0.341866         1.375497        -1.601816
 C         0.325637         1.191470        -0.078470
 O        -0.856933         0.397516         0.306507
 C         1.524072         0.186759         0.567491
 O         2.662459         0.097959         0.127467
 H        -2.422861        -2.108145        -0.243497
 H        -1.941346        -2.234233        -1.920199
 H        -0.770834        -2.529194        -0.514459
 H        -2.858860        -0.184636        -2.331103
 H        -2.359101         1.322376        -1.259878
 H        -0.418431        -0.509393        -2.855855
 H         1.304618         1.057017        -1.945085
 H         0.048092         2.499035        -1.647936
 H         0.197201         2.149376         0.460033
 H         1.071741        -0.549030         1.320464
