19
Iteration:  3474
 C        -1.812474        -1.930277        -0.892977
 C        -1.335793        -0.440174        -1.032267
 C        -2.064891         0.541284        -1.882816
 C        -0.603933         0.143262        -2.180043
 C         0.529228         1.132788        -1.686778
 C         0.295530         1.086822        -0.111245
 O        -0.722840         0.026847         0.240173
 C         1.478126         0.405346         0.591900
 O         2.711050         0.516885         0.542137
 H        -1.877826        -2.085320         0.108651
 H        -2.783235        -1.927258        -1.359631
 H        -1.133700        -2.602934        -1.355646
 H        -3.045285         0.263130        -2.349736
 H        -2.137381         1.525369        -1.326973
 H        -0.511195        -0.493084        -3.119564
 H         1.588131         0.778631        -1.999847
 H         0.259046         2.115770        -2.197462
 H         0.036780         2.141344         0.271338
 H         0.980447        -0.200071         1.344125
