19
Iteration:  2534charge 0 multiplicity 1
 C        -1.761396        -1.871788        -0.797063
 C        -1.394357        -0.426274        -0.952506
 C        -2.102741         0.487659        -1.933777
 C        -0.636966         0.258265        -2.127498
 C         0.448383         1.283282        -1.504398
 C         0.373275         0.931522         0.014084
 O        -0.832613         0.104001         0.231932
 C         1.628898         0.326485         0.526477
 O         2.750043         0.428727         0.164774
 H        -2.287969        -1.973849         0.236384
 H        -2.565676        -2.197271        -1.660604
 H        -0.942429        -2.765940        -0.866652
 H        -2.900818         0.121850        -2.596747
 H        -2.387128         1.445458        -1.415910
 H        -0.186985        -0.382932        -2.903187
 H         1.470300         1.171880        -1.921539
 H        -0.022590         2.215415        -1.682302
 H         0.136302         1.875443         0.609981
 H         1.360468        -0.416805         1.337339
