19
Iteration:  4896charge 0 multiplicity 1
 C        -1.788053        -1.812191        -0.724369
 C        -1.288297        -0.416366        -1.104544
 C        -1.873958         0.373257        -2.209894
 C        -0.379122         0.042709        -2.212583
 C         0.612009         1.024787        -1.578051
 C         0.294627         1.034026        -0.064806
 O        -0.909761         0.197764         0.070617
 C         1.298777         0.473424         0.786502
 O         2.518422         0.566026         0.623370
 H        -1.732718        -1.830771         0.351041
 H        -2.813780        -1.884410        -1.267645
 H        -1.063368        -2.503913        -1.062408
 H        -2.427329        -0.170566        -2.942054
 H        -2.236638         1.365332        -1.988277
 H         0.057727        -0.785368        -2.717214
 H         1.602912         0.604579        -1.914381
 H         0.400362         1.992538        -1.944894
 H         0.134806         2.034006         0.263309
 H         0.829010        -0.184471         1.609247
