19
Iteration:  2489charge 0 multiplicity 1
 C        -1.573061        -1.899318        -0.884255
 C        -1.367329        -0.373702        -0.960886
 C        -2.076311         0.628394        -1.730515
 C        -0.606910         0.234675        -2.084729
 C         0.458164         1.053905        -1.572216
 C         0.371754         0.966930        -0.077328
 O        -0.893441         0.182633         0.267478
 C         1.468634         0.247306         0.592410
 O         2.612513         0.469861         0.086055
 H        -2.542060        -2.260428        -0.293872
 H        -1.415368        -2.373183        -1.950756
 H        -0.624373        -2.211393        -0.247242
 H        -2.887802         0.289846        -2.368497
 H        -2.199373         1.515605        -1.092037
 H        -0.479149        -0.363702        -2.965822
 H         1.319477         0.520987        -1.954694
 H         0.472222         2.092385        -1.789407
 H         0.419272         2.001580         0.351362
 H         1.331171        -0.459009         1.451886
