19
Iteration:   609charge 0 multiplicity 1
 C        -1.544719        -1.887425        -0.913918
 C        -1.172947        -0.432899        -0.923964
 C        -2.116774         0.372862        -1.771200
 C        -0.680994         0.254308        -2.123154
 C         0.327851         1.374381        -1.603334
 C         0.305969         1.171665        -0.074379
 O        -0.838252         0.397720         0.318683
 C         1.513552         0.194792         0.578754
 O         2.674918         0.095304         0.123563
 H        -2.356990        -2.059259        -0.247279
 H        -1.872420        -2.210580        -1.842255
 H        -0.806183        -2.494688        -0.488107
 H        -2.816942        -0.175142        -2.302430
 H        -2.428768         1.312554        -1.341532
 H        -0.381197        -0.489299        -2.890529
 H         1.370979         1.042659        -1.935203
 H         0.041768         2.512336        -1.688585
 H         0.229213         2.160257         0.461696
 H         1.060358        -0.572828         1.361544
