19
Iteration:  1805charge 0 multiplicity 1
 C        -1.394143        -1.856251        -0.727048
 C        -1.265141        -0.383302        -0.929261
 C        -2.109760         0.436631        -1.974487
 C        -0.632050         0.325555        -2.150611
 C         0.279449         1.346444        -1.458260
 C         0.332894         0.951187         0.016310
 O        -0.964235         0.319918         0.235803
 C         1.518593         0.225126         0.611846
 O         2.645840         0.129125        -0.003273
 H        -1.958150        -1.950403         0.278440
 H        -1.798777        -2.428801        -1.582007
 H        -0.477901        -2.332311        -0.497356
 H        -2.695795        -0.119248        -2.722292
 H        -2.565640         1.399261        -1.759939
 H        -0.080885        -0.238586        -2.890799
 H         1.240969         1.327013        -1.941882
 H         0.062838         2.420626        -1.399093
 H         0.346987         1.974556         0.692687
 H         1.260885        -0.300641         1.620691
