19
Iteration:  1123charge 0 multiplicity 1
 C        -1.689375        -1.894566        -0.780909
 C        -1.311505        -0.426352        -0.916817
 C        -2.115634         0.385751        -1.873805
 C        -0.698649         0.292583        -2.100109
 C         0.314843         1.336141        -1.572567
 C         0.334037         1.077921        -0.047577
 O        -0.755115         0.239103         0.193132
 C         1.552577         0.218536         0.415905
 O         2.792098         0.304756         0.339804
 H        -2.348523        -1.978255        -0.006205
 H        -2.113064        -2.236327        -1.747562
 H        -0.869029        -2.526151        -0.537043
 H        -2.839911        -0.146981        -2.472309
 H        -2.468225         1.361402        -1.529623
 H        -0.411358        -0.350477        -2.924840
 H         1.240744         0.977242        -2.223919
 H         0.090231         2.445197        -1.805270
 H         0.360976         2.040127         0.583474
 H         1.145394        -0.679498         0.843525
