19
Iteration:   580
 C        -1.468499        -1.846139        -0.746951
 C        -1.356806        -0.365027        -0.948819
 C        -2.116340         0.513574        -1.932270
 C        -0.725221         0.254679        -2.039971
 C         0.378370         1.345279        -1.533876
 C         0.370217         1.019903        -0.102259
 O        -0.846949         0.183858         0.256359
 C         1.550913         0.273433         0.579782
 O         2.631882         0.125617         0.088824
 H        -2.332711        -2.101244        -0.004052
 H        -1.491184        -2.358508        -1.842461
 H        -0.533926        -2.215970        -0.227491
 H        -2.882264         0.215672        -2.672812
 H        -2.466500         1.477957        -1.487296
 H        -0.316141        -0.433092        -2.785771
 H         1.271563         1.285252        -2.066040
 H         0.096130         2.401227        -1.584247
 H         0.277102         1.952901         0.460660
 H         1.230636        -0.048438         1.564511
