19
Iteration:  3193
 C        -1.556792        -1.884947        -0.788100
 C        -1.192973        -0.406362        -0.911113
 C        -2.016760         0.445992        -2.010374
 C        -0.527370         0.222617        -2.031140
 C         0.252442         1.401736        -1.531200
 C         0.335897         1.074811         0.034722
 O        -0.835848         0.254609         0.285818
 C         1.415360         0.176611         0.474115
 O         2.621314         0.241591         0.113132
 H        -1.439206        -2.405355         0.206752
 H        -2.814075        -1.947303        -0.860653
 H        -1.255360        -2.658272        -1.551330
 H        -2.670522        -0.072621        -2.731016
 H        -2.391046         1.485104        -1.756148
 H        -0.061850        -0.499472        -2.713660
 H         1.279540         1.475260        -1.941430
 H        -0.338900         2.342552        -1.575470
 H         0.430392         1.979271         0.567466
 H         1.185711        -0.518306         1.318499
