19
Iteration:  1672
 C        -1.474367        -1.926954        -0.756488
 C        -1.186276        -0.446274        -0.867967
 C        -2.023531         0.458350        -1.868537
 C        -0.512708         0.285802        -2.129647
 C         0.295433         1.367187        -1.507021
 C         0.295177         1.087517        -0.014720
 O        -0.894190         0.275227         0.271517
 C         1.417091         0.266549         0.520636
 O         2.576318         0.129446        -0.002599
 H        -2.085876        -2.242254         0.256613
 H        -2.231797        -2.082463        -1.534263
 H        -0.528709        -2.473967        -0.752573
 H        -2.695099         0.054798        -2.638893
 H        -2.421955         1.404168        -1.423985
 H        -0.128267        -0.162055        -3.068843
 H         1.365824         1.499711        -1.820942
 H        -0.207446         2.359753        -1.615934
 H         0.257602         1.982594         0.622225
 H         1.037029        -0.442028         1.343217
