19
Iteration:  1795charge 0 multiplicity 1
 C        -1.424079        -1.871173        -0.703250
 C        -1.293515        -0.419095        -1.000388
 C        -2.103885         0.409877        -1.903200
 C        -0.591286         0.363016        -2.147985
 C         0.251125         1.423220        -1.492766
 C         0.344987         1.051325         0.006308
 O        -0.866947         0.298776         0.226750
 C         1.568895         0.170504         0.573820
 O         2.588814         0.096557         0.076081
 H        -2.300977        -2.083365         0.121802
 H        -1.766630        -2.435728        -1.623056
 H        -0.400566        -2.154380        -0.415574
 H        -2.582865        -0.232655        -2.647455
 H        -2.686177         1.300393        -1.739816
 H        -0.344547        -0.282803        -2.970116
 H         1.216272         1.360984        -1.888253
 H        -0.269988         2.344694        -1.732312
 H         0.352488         2.080181         0.670927
 H         1.211532        -0.273791         1.573088
