19
Iteration:  3199charge 0 multiplicity 1
 C        -1.603963        -1.881448        -0.805605
 C        -1.211011        -0.412103        -0.903505
 C        -2.002434         0.441513        -2.009067
 C        -0.558711         0.219753        -2.070702
 C         0.293193         1.395863        -1.481702
 C         0.325726         1.059640         0.018526
 O        -0.855335         0.240301         0.248212
 C         1.498777         0.188196         0.490224
 O         2.625724         0.238717         0.130482
 H        -1.281126        -2.159940         0.197452
 H        -2.592435        -1.778727        -0.548256
 H        -1.304718        -2.657415        -1.543826
 H        -2.620246        -0.180285        -2.639346
 H        -2.456209         1.339024        -1.705461
 H        -0.140048        -0.438741        -2.815689
 H         1.200982         1.706912        -2.012115
 H        -0.330939         2.277749        -1.581683
 H         0.205948         2.054793         0.613714
 H         1.104189        -0.482844         1.304775
