19
Iteration:   410
 C        -1.380896        -1.934700        -0.808678
 C        -1.351073        -0.377701        -0.824655
 C        -2.019675         0.545598        -1.902881
 C        -0.633794         0.163909        -2.004166
 C         0.335057         1.328156        -1.596874
 C         0.372887         1.002580        -0.017189
 O        -0.902374         0.384820         0.323969
 C         1.436804         0.102568         0.467396
 O         2.575809         0.240159         0.065808
 H        -2.256475        -2.046732        -0.244134
 H        -1.571132        -2.315234        -1.743407
 H        -0.469158        -2.432750        -0.495855
 H        -2.850740         0.245384        -2.639480
 H        -2.109716         1.695315        -1.606860
 H        -0.255442        -0.539373        -2.793098
 H         1.293616         1.354869        -2.142783
 H        -0.034521         2.363164        -1.756885
 H         0.350755         1.964572         0.523692
 H         1.015872        -0.768727         1.101307
