19
Iteration:   620
 C        -1.544129        -1.938077        -0.838994
 C        -1.171254        -0.451399        -0.856455
 C        -2.150600         0.394308        -1.803125
 C        -0.622297         0.295256        -2.032976
 C         0.362151         1.341569        -1.572636
 C         0.401508         1.165183        -0.037869
 O        -0.912881         0.369661         0.226060
 C         1.495665         0.219637         0.479264
 O         2.639037         0.107777         0.134537
 H        -2.400852        -2.091970        -0.235175
 H        -1.811255        -2.089263        -1.841966
 H        -0.760691        -2.625404        -0.735338
 H        -2.902100         0.029218        -2.430498
 H        -2.434762         1.227678        -1.175280
 H        -0.316627        -0.257282        -2.956843
 H         1.378007         1.286922        -2.125005
 H         0.048290         2.414800        -2.007692
 H         0.277681         2.106516         0.560857
 H         1.058720        -0.475106         1.323587
