19
Iteration:  1830
 C        -1.413042        -1.869002        -0.787897
 C        -1.360196        -0.376387        -0.935935
 C        -2.064050         0.476574        -1.910149
 C        -0.525138         0.209990        -2.048287
 C         0.414046         1.290855        -1.444520
 C         0.247059         1.016182         0.056601
 O        -1.030741         0.350192         0.271330
 C         1.533880         0.164628         0.508133
 O         2.570040         0.235481        -0.067874
 H        -1.710501        -2.162252         0.283526
 H        -1.970638        -2.455113        -1.582736
 H        -0.290405        -2.204437        -0.776838
 H        -2.497842        -0.003002        -2.767317
 H        -2.520230         1.435459        -1.601195
 H        -0.039293        -0.428912        -2.801171
 H         1.440915         1.146996        -1.674250
 H         0.282836         2.305824        -1.668238
 H         0.349522         1.978585         0.766360
 H         1.325069        -0.450979         1.492472
