19
Iteration:  4199
 C        -1.908460        -1.818985        -0.901839
 C        -1.413715        -0.380284        -1.012875
 C        -2.079445         0.647029        -2.010200
 C        -0.698227         0.116390        -2.228625
 C         0.630368         0.710250        -1.789662
 C         0.452012         0.819008        -0.151507
 O        -0.763210         0.034130         0.103858
 C         1.521675         0.481611         0.858104
 O         2.695744         0.866226         0.748859
 H        -2.961708        -1.941023        -1.411971
 H        -1.166766        -2.511177        -1.314265
 H        -1.870794        -2.047409         0.094037
 H        -2.668218         0.028232        -2.704520
 H        -2.227436         1.720200        -1.812117
 H        -0.593500        -0.618053        -2.983885
 H         1.430986         0.012437        -2.065565
 H         0.762514         1.630381        -2.281903
 H         0.150996         1.891550         0.024282
 H         1.184047         0.027456         1.858556
