19
Iteration:  2094charge 0 multiplicity 1
 C        -1.474470        -1.916739        -0.830667
 C        -1.319648        -0.423596        -0.907160
 C        -2.064674         0.561627        -1.889150
 C        -0.604342         0.287647        -2.078797
 C         0.459124         1.150716        -1.508585
 C         0.290940         1.013720         0.070980
 O        -0.935422         0.246496         0.246853
 C         1.501715         0.253878         0.537080
 O         2.575742         0.335948        -0.017408
 H        -2.456176        -2.077536        -0.401082
 H        -1.440891        -2.505796        -1.743480
 H        -0.801719        -2.262928         0.031260
 H        -2.884307         0.160386        -2.494265
 H        -2.359693         1.456306        -1.300874
 H        -0.397498        -0.376928        -2.837164
 H         1.538629         0.906149        -1.722871
 H         0.349541         2.318824        -1.660802
 H         0.283921         1.920005         0.579824
 H         1.457349        -0.496815         1.334749
