19
Iteration:  3116
 C        -1.313589        -1.782333        -0.663791
 C        -1.239665        -0.367013        -0.937809
 C        -2.129702         0.438422        -1.967379
 C        -0.593809         0.303547        -2.082103
 C         0.303854         1.405869        -1.464252
 C         0.284701         0.970278        -0.002868
 O        -0.952187         0.317650         0.235932
 C         1.445157         0.126532         0.500237
 O         2.609127         0.097593         0.012912
 H        -2.283199        -2.022081        -0.259099
 H        -0.913706        -2.525006        -1.474322
 H        -0.704151        -2.107417         0.206875
 H        -2.726566         0.067818        -2.834673
 H        -2.510323         1.366093        -1.522250
 H        -0.186976        -0.091803        -2.972899
 H         1.324856         1.246224        -1.878391
 H        -0.057139         2.453885        -1.706962
 H         0.247941         1.838801         0.679525
 H         1.212339        -0.533275         1.378588
