19
Iteration:  3113charge 0 multiplicity 1
 C        -1.305355        -1.785452        -0.682064
 C        -1.257555        -0.376607        -0.947979
 C        -2.120357         0.425593        -1.973927
 C        -0.600429         0.291365        -2.065816
 C         0.270490         1.422313        -1.471762
 C         0.278463         1.007919        -0.003410
 O        -0.934277         0.327132         0.242932
 C         1.457979         0.121613         0.485840
 O         2.611756         0.080601         0.029499
 H        -2.347865        -1.966695        -0.326959
 H        -0.884756        -2.553602        -1.527408
 H        -0.728671        -2.072283         0.288022
 H        -2.738611         0.059184        -2.765503
 H        -2.403608         1.329358        -1.493140
 H        -0.235116        -0.109071        -3.001810
 H         1.297579         1.245662        -1.812592
 H         0.007841         2.445766        -1.678241
 H         0.289358         1.816523         0.667568
 H         1.222600        -0.518757         1.382431
