19
Iteration:  2862charge 0 multiplicity 1
 C        -1.385623        -1.896074        -0.810592
 C        -1.281622        -0.391137        -0.873183
 C        -2.098573         0.495039        -1.913458
 C        -0.669760         0.186009        -2.068543
 C         0.342919         1.323860        -1.585032
 C         0.319757         1.022732        -0.076915
 O        -0.894420         0.373675         0.292660
 C         1.461433         0.210175         0.455487
 O         2.623613         0.167673         0.195159
 H        -2.209009        -2.221473        -0.275952
 H        -1.320819        -2.120544        -1.918459
 H        -0.532358        -2.338862        -0.362780
 H        -2.826902         0.136838        -2.638204
 H        -2.485837         1.349223        -1.405004
 H        -0.285160        -0.387021        -2.933191
 H         1.354469         1.053245        -2.034081
 H        -0.109532         2.394802        -1.670259
 H         0.394757         1.832328         0.681900
 H         1.091815        -0.282776         1.408990
