19
Iteration:   456charge 0 multiplicity 1
 C        -1.565202        -1.947056        -0.643525
 C        -1.256477        -0.436054        -1.013316
 C        -2.166953         0.484339        -1.988738
 C        -0.649558         0.372000        -2.072957
 C         0.379694         1.313355        -1.469869
 C         0.384515         1.047727         0.020538
 O        -0.881781         0.296897         0.242427
 C         1.535219         0.150630         0.549988
 O         2.654795         0.218103         0.006795
 H        -2.517203        -1.899625        -0.097413
 H        -1.656228        -2.553215        -1.516108
 H        -0.655307        -2.347838        -0.133477
 H        -2.601277        -0.095230        -2.763105
 H        -2.698197         1.265239        -1.570086
 H        -0.408838         0.018744        -3.090557
 H         1.340950         1.072911        -1.749775
 H         0.291599         2.343208        -1.804354
 H         0.327249         1.865975         0.742340
 H         1.278315        -0.245353         1.591889
