19
Iteration:  1394charge 0 multiplicity 1
 C        -1.759142        -1.908953        -0.762019
 C        -1.293221        -0.450805        -0.976682
 C        -2.125598         0.460549        -1.896950
 C        -0.668840         0.320200        -2.161211
 C         0.348751         1.337251        -1.557838
 C         0.350708         0.960498        -0.064093
 O        -0.816428         0.130776         0.211823
 C         1.692015         0.311942         0.617415
 O         2.751628         0.318539         0.205107
 H        -2.638996        -2.034333        -0.224483
 H        -1.892048        -2.411375        -1.778564
 H        -0.970567        -2.189763         0.004901
 H        -2.630972        -0.024494        -2.731410
 H        -2.642558         1.376191        -1.639117
 H        -0.582521        -0.138641        -3.155087
 H         1.311166         1.224091        -1.917602
 H         0.043807         2.283905        -1.864870
 H         0.116913         1.774475         0.773294
 H         1.401391         0.062365         1.666786
