19
Iteration:   205
 C        -1.626391        -1.849948        -0.913415
 C        -1.241512        -0.418105        -0.961940
 C        -2.127133         0.472301        -1.799276
 C        -0.637614         0.219573        -2.097662
 C         0.347853         1.256386        -1.531115
 C         0.322872         1.083571         0.009749
 O        -0.854834         0.197027         0.302026
 C         1.561269         0.344512         0.582568
 O         2.693294         0.211779         0.081778
 H        -2.372315        -2.177523        -0.063472
 H        -2.306214        -2.160630        -1.719438
 H        -0.706645        -2.560745        -0.963883
 H        -2.808429         0.204922        -2.583628
 H        -2.341556         1.491798        -1.495289
 H        -0.322380        -0.393182        -2.928545
 H         1.435042         0.956650        -1.838093
 H         0.309104         2.354431        -1.994094
 H         0.213048         2.072092         0.581991
 H         1.300087        -0.147159         1.588252
