19
Iteration:  4405charge 0 multiplicity 1
 C        -1.910874        -1.741286        -0.882129
 C        -1.376576        -0.374444        -1.013460
 C        -2.130814         0.587454        -1.824022
 C        -0.747803         0.090086        -2.303295
 C         0.634956         0.625081        -1.885739
 C         0.493561         0.861548        -0.281707
 O        -0.730184         0.152444         0.100697
 C         1.749729         0.375627         0.447251
 O         2.472555         0.939707         1.194800
 H        -2.835020        -2.083810        -1.507477
 H        -1.185050        -2.567253        -1.189766
 H        -1.940461        -2.008226         0.120267
 H        -2.917841         0.124207        -2.450569
 H        -2.376457         1.598204        -1.497914
 H        -0.746395        -0.684638        -3.014309
 H         1.313607        -0.305413        -2.055281
 H         0.989696         1.522170        -2.303828
 H         0.457748         2.088659        -0.052145
 H         1.820637        -0.736958         0.360739
