19
Iteration:  1241
 C        -1.665076        -1.859283        -0.804886
 C        -1.267332        -0.454927        -0.853774
 C        -2.064011         0.501298        -1.765317
 C        -0.621077         0.214943        -2.111981
 C         0.320479         1.344284        -1.651826
 C         0.360442         0.999957        -0.171612
 O        -0.784828         0.209397         0.252475
 C         1.529267         0.119547         0.413751
 O         2.660412         0.401753         0.327936
 H        -2.671759        -2.024013        -0.379485
 H        -1.577710        -2.273895        -1.921849
 H        -0.911936        -2.627546        -0.303898
 H        -2.921877         0.125326        -2.330988
 H        -2.234179         1.517098        -1.355568
 H        -0.572121        -0.365529        -3.017606
 H         1.401902         1.272754        -1.938943
 H        -0.127582         2.359697        -1.806479
 H         0.345072         1.978514         0.258396
 H         1.159919        -0.644343         1.054380
