19
Iteration:    70charge 0 multiplicity 1
 C        -1.843923        -1.851621        -0.932553
 C        -1.485943        -0.425887        -0.970017
 C        -2.222238         0.669791        -1.849557
 C        -0.780148         0.233591        -2.114269
 C         0.444463         1.005158        -1.595456
 C         0.424480         0.868440        -0.032854
 O        -0.598159        -0.041849         0.195875
 C         1.680389         0.513102         0.792368
 O         2.778223         0.464323         0.202153
 H        -2.570004        -2.008534        -0.084403
 H        -2.405384        -2.033842        -1.978495
 H        -0.848697        -2.388588        -0.795135
 H        -2.780656         0.401378        -2.754073
 H        -2.404826         1.626898        -1.400118
 H        -0.677222        -0.377706        -3.032961
 H         1.399434         0.777856        -2.066065
 H         0.163848         2.191378        -1.833092
 H         0.077140         1.908897         0.280828
 H         1.578797         0.466516         1.917250
