19
Iteration:  4883charge 0 multiplicity 1
 C        -1.746313        -1.785133        -0.708121
 C        -1.360766        -0.385283        -1.105518
 C        -1.844187         0.451160        -2.329062
 C        -0.391255         0.011824        -2.227102
 C         0.550518         0.988786        -1.563573
 C         0.210733         1.008671        -0.104665
 O        -0.886507         0.167905         0.164670
 C         1.385983         0.402888         0.785383
 O         2.541614         0.605897         0.624020
 H        -2.013289        -1.796932         0.283024
 H        -2.722344        -2.327786        -1.091441
 H        -0.959498        -2.542162        -0.815438
 H        -2.525861        -0.175805        -2.936330
 H        -2.069198         1.519328        -2.339116
 H        -0.041715        -0.516167        -3.046398
 H         1.602314         0.711339        -1.530130
 H         0.647831         1.953612        -2.028278
 H        -0.025358         2.011923         0.327777
 H         0.970100        -0.040770         1.786585
