19
Iteration:  3586
 C        -1.957281        -1.878860        -0.987383
 C        -1.333937        -0.438719        -1.030792
 C        -1.879269         0.693463        -1.783766
 C        -0.535587         0.114900        -2.201107
 C         0.619355         0.886120        -1.589385
 C         0.282391         0.901150        -0.158072
 O        -0.704570        -0.160004         0.236906
 C         1.421129         0.664917         0.685665
 O         2.576272         0.697039         0.424688
 H        -1.538795        -2.435673        -1.767967
 H        -1.845359        -2.508947        -0.085154
 H        -2.964236        -1.812718        -1.163550
 H        -2.759115         0.591814        -2.405480
 H        -1.843551         1.674464        -1.375118
 H        -0.465835        -0.429780        -3.133552
 H         1.641377         0.366976        -1.607968
 H         0.584500         1.876479        -2.109549
 H        -0.175564         1.920821         0.294976
 H         1.030627         0.331717         1.743008
