19
Iteration:  3832charge 0 multiplicity 1
 C        -2.183885        -1.678468        -0.893302
 C        -1.393340        -0.413779        -1.081220
 C        -1.941937         0.777330        -1.695997
 C        -0.644076        -0.003061        -2.294743
 C         0.704012         0.452073        -1.803474
 C         0.534458         0.740368        -0.331053
 O        -0.602794        -0.177225         0.007207
 C         1.740071         0.380299         0.604144
 O         2.250951         1.344232         1.072421
 H        -1.957870        -2.052637         0.175965
 H        -3.210989        -1.517321        -1.112976
 H        -1.796332        -2.518013        -1.660878
 H        -2.819706         0.647657        -2.391360
 H        -1.806299         1.804365        -1.234631
 H        -0.883963        -0.290922        -3.350051
 H         1.400665        -0.569139        -1.678991
 H         1.356959         1.165996        -2.355879
 H         0.373408         1.769043        -0.182327
 H         2.191235        -0.662851         0.678677
