19
Iteration:  1408
 C        -1.659190        -1.869124        -0.780740
 C        -1.392596        -0.409193        -1.017186
 C        -2.180466         0.476780        -1.902319
 C        -0.647887         0.293713        -2.128983
 C         0.359208         1.298878        -1.567360
 C         0.338574         0.937915        -0.018576
 O        -0.856631         0.114023         0.230489
 C         1.622791         0.343636         0.640665
 O         2.802461         0.320552         0.158756
 H        -2.736011        -1.865792        -0.340315
 H        -1.630321        -2.597667        -1.650053
 H        -0.941293        -2.455603        -0.148986
 H        -2.853363        -0.085716        -2.491764
 H        -2.439925         1.482503        -1.641396
 H        -0.178074        -0.235847        -2.976527
 H         1.354903         1.025786        -2.039823
 H         0.233368         2.398215        -1.619385
 H         0.272246         2.066125         0.464537
 H         1.507475        -0.075183         1.696719
