19
Iteration:  2115
 C        -1.484329        -1.838988        -0.802832
 C        -1.386035        -0.394351        -0.965585
 C        -2.135787         0.517417        -1.895372
 C        -0.554953         0.238909        -2.117602
 C         0.380169         1.201023        -1.461388
 C         0.297254         0.901065         0.017590
 O        -0.959512         0.293045         0.271686
 C         1.619830         0.215703         0.605893
 O         2.615950         0.332732         0.003298
 H        -2.401064        -2.260585        -0.335788
 H        -1.457558        -2.380231        -1.752952
 H        -0.687325        -2.168675        -0.119985
 H        -2.765513         0.035684        -2.669700
 H        -2.509891         1.505609        -1.532738
 H        -0.307466        -0.181321        -3.019710
 H         1.366213         0.970479        -1.933136
 H         0.332290         2.366523        -1.660975
 H         0.332617         1.709481         0.639518
 H         1.756559        -0.212696         1.602784
