19
Iteration:  4607charge 0 multiplicity 1
 C        -2.217931        -1.785589        -1.030543
 C        -1.449298        -0.440842        -1.079783
 C        -1.930491         0.786367        -1.812817
 C        -0.634891         0.012293        -2.241740
 C         0.700498         0.563424        -1.758650
 C         0.365959         0.654180        -0.152293
 O        -0.664836        -0.260579         0.099490
 C         1.600839         0.592340         0.789912
 O         2.668611         1.257624         0.782806
 H        -2.522715        -2.077959        -0.104801
 H        -3.056948        -1.808359        -1.681662
 H        -1.604009        -2.704666        -1.258261
 H        -2.805463         0.812282        -2.467982
 H        -1.744856         1.675596        -1.237933
 H        -0.614320        -0.363359        -3.219213
 H         1.577993         0.038988        -2.093612
 H         0.866614         1.642640        -2.122465
 H         0.134701         1.794826         0.036414
 H         1.506750        -0.054216         1.670223
