19
Iteration:  3286
 C        -1.523986        -1.937325        -0.891098
 C        -1.343127        -0.372000        -0.899834
 C        -2.049644         0.541254        -1.824597
 C        -0.562579         0.193191        -2.130165
 C         0.493801         1.102763        -1.614436
 C         0.270506         1.071824        -0.081888
 O        -0.904331         0.263623         0.281887
 C         1.429917         0.236480         0.560562
 O         2.634398         0.393600         0.260864
 H        -0.842140        -2.426816        -1.589534
 H        -1.317535        -2.370064         0.005114
 H        -2.573822        -2.255342        -1.144104
 H        -2.597191         0.272493        -2.698773
 H        -2.305998         1.452433        -1.318687
 H        -0.431580        -0.294694        -3.059771
 H         1.533152         0.865767        -1.927450
 H         0.141253         2.143326        -1.904206
 H        -0.032289         2.079880         0.395906
 H         1.169634        -0.527180         1.332374
