19
Iteration:  1997
 C        -1.494569        -1.874026        -0.752737
 C        -1.342642        -0.449646        -0.926144
 C        -2.091769         0.493996        -1.921638
 C        -0.610456         0.283046        -2.188314
 C         0.397747         1.290557        -1.511513
 C         0.297688         0.993348         0.031188
 O        -0.903226         0.276213         0.235190
 C         1.519585         0.151900         0.577213
 O         2.667756         0.305268         0.091620
 H        -1.874204        -2.052395         0.188032
 H        -2.288973        -2.150953        -1.409547
 H        -0.456954        -2.402903        -0.740989
 H        -2.779468        -0.020833        -2.618981
 H        -2.437603         1.518576        -1.682678
 H        -0.443118        -0.382366        -2.953758
 H         1.398807         1.335191        -1.961256
 H         0.116045         2.249595        -1.720012
 H         0.106095         1.975673         0.703217
 H         1.324156        -0.558878         1.456329
