19
Iteration:  4222charge 0 multiplicity 1
 C        -1.917420        -1.824117        -0.780800
 C        -1.419246        -0.434655        -1.080547
 C        -2.093925         0.640556        -1.967954
 C        -0.663523         0.059160        -2.343808
 C         0.642063         0.801637        -1.781650
 C         0.371305         0.863116        -0.242219
 O        -0.714611         0.098737         0.112806
 C         1.531440         0.382303         0.686511
 O         2.685067         0.865131         0.922167
 H        -2.876751        -2.052580        -1.361190
 H        -1.150019        -2.519313        -1.012075
 H        -2.020268        -1.924562         0.236180
 H        -2.871395         0.263442        -2.638303
 H        -2.208363         1.549799        -1.382284
 H        -0.514444        -0.581586        -3.188876
 H         1.542994         0.210586        -1.974345
 H         0.788921         1.764687        -2.204857
 H         0.217437         1.948146        -0.142652
 H         1.167747        -0.437233         1.441414
