19
Iteration:  2666charge 0 multiplicity 1
 C        -1.563759        -1.859226        -0.864091
 C        -1.348389        -0.402099        -0.943810
 C        -2.155960         0.517106        -1.790226
 C        -0.761185         0.216820        -2.118433
 C         0.346382         1.271850        -1.666443
 C         0.381227         1.023744        -0.112669
 O        -0.836127         0.238182         0.265970
 C         1.578281         0.187402         0.488199
 O         2.760053         0.330776         0.347814
 H        -2.506026        -2.139938        -0.462218
 H        -1.392757        -2.413821        -1.875773
 H        -0.712060        -2.066462        -0.181916
 H        -2.950635        -0.026971        -2.287354
 H        -2.489861         1.450101        -1.357782
 H        -0.373719        -0.466516        -2.846141
 H         1.291533         1.025058        -2.141598
 H         0.206989         2.198670        -2.092327
 H         0.292354         1.976155         0.584613
 H         1.139940        -0.618309         1.125452
