19
Iteration:  4646
 C        -2.161777        -1.756551        -0.992647
 C        -1.359554        -0.496952        -1.041136
 C        -1.911461         0.663127        -1.912354
 C        -0.537233         0.046971        -2.205674
 C         0.675865         0.684899        -1.670525
 C         0.277903         0.822445        -0.177462
 O        -0.583677        -0.153832         0.214810
 C         1.475051         0.563366         0.731270
 O         2.597003         1.056034         0.677897
 H        -1.934643        -2.352217         0.028087
 H        -3.205571        -1.417782        -1.202330
 H        -1.881286        -2.202447        -1.936299
 H        -2.816856         0.426323        -2.458036
 H        -1.952261         1.684480        -1.518812
 H        -0.477969        -0.460219        -3.172312
 H         1.586209         0.025190        -1.858580
 H         0.955810         1.623799        -2.089129
 H        -0.198924         1.784100        -0.066745
 H         1.224325        -0.379364         1.422430
