19
Iteration:   134charge 0 multiplicity 1
 C        -1.655051        -1.930944        -0.832284
 C        -1.334269        -0.408717        -0.915313
 C        -2.099597         0.673432        -1.697318
 C        -0.676563         0.319126        -2.128539
 C         0.515136         1.148634        -1.627794
 C         0.302791         1.037672        -0.137182
 O        -0.658090        -0.001360         0.258175
 C         1.441859         0.352276         0.580651
 O         2.568689         0.341915         0.147295
 H        -2.470116        -2.161307        -0.160565
 H        -2.010208        -2.414151        -1.821271
 H        -0.711665        -2.411533        -0.489060
 H        -2.823049         0.494062        -2.511528
 H        -2.230057         1.671308        -1.352311
 H        -0.509031        -0.293354        -3.042639
 H         1.430112         0.783137        -1.920280
 H         0.522896         2.116657        -1.890740
 H         0.143284         1.937314         0.400701
 H         1.164128         0.010604         1.583934
