19
Iteration:  1266charge 0 multiplicity 1
 C        -1.642264        -1.855799        -0.778728
 C        -1.307430        -0.428937        -0.987316
 C        -2.141001         0.503383        -1.792585
 C        -0.646734         0.254919        -2.174895
 C         0.284744         1.261237        -1.626175
 C         0.351530         1.090024        -0.012454
 O        -0.785223         0.138987         0.231303
 C         1.558142         0.269189         0.499517
 O         2.762535         0.310612         0.304431
 H        -2.524759        -1.986848        -0.173799
 H        -1.707176        -2.454190        -1.745897
 H        -0.781363        -2.367052        -0.336749
 H        -2.899103         0.141975        -2.461959
 H        -2.337743         1.499793        -1.537805
 H        -0.474538        -0.437717        -2.990114
 H         1.337979         0.980404        -2.134666
 H        -0.056752         2.378506        -1.850561
 H         0.163402         2.035901         0.343911
 H         1.172106        -0.627544         0.984794
