19
Iteration:  2841charge 0 multiplicity 1
 C        -1.451080        -1.914697        -0.678988
 C        -1.340296        -0.401547        -1.052174
 C        -2.167139         0.470968        -1.868821
 C        -0.628835         0.336332        -2.154909
 C         0.277571         1.362692        -1.617227
 C         0.345484         1.059276        -0.016050
 O        -0.892408         0.256922         0.191915
 C         1.603934         0.213304         0.586517
 O         2.703754         0.141231         0.213727
 H        -2.431395        -2.021217        -0.353259
 H        -1.282561        -2.449503        -1.621265
 H        -0.782665        -2.236893         0.103662
 H        -2.884027        -0.133001        -2.422599
 H        -2.516739         1.469169        -1.684260
 H        -0.220959        -0.227854        -3.025488
 H         1.362948         1.327669        -1.992503
 H        -0.386705         2.336214        -1.739525
 H         0.297327         1.897003         0.588823
 H         1.194743        -0.366782         1.462704
