19
Iteration:  3382charge 0 multiplicity 1
 C        -1.779610        -1.884177        -0.930182
 C        -1.332998        -0.420788        -0.909788
 C        -1.933338         0.512219        -1.829739
 C        -0.521284         0.173070        -2.133059
 C         0.525763         1.116747        -1.592361
 C         0.269378         0.991784        -0.080392
 O        -0.884535         0.114756         0.254775
 C         1.460815         0.255057         0.560382
 O         2.644887         0.600690         0.272192
 H        -2.856622        -1.967039        -1.347982
 H        -1.074907        -2.502212        -1.444131
 H        -1.884579        -2.093859         0.140405
 H        -2.782821         0.098298        -2.299679
 H        -1.925634         1.580160        -1.726128
 H        -0.092485        -0.486440        -2.839001
 H         1.513665         0.823890        -1.812849
 H         0.343659         2.151813        -1.873538
 H         0.097305         1.994814         0.588924
 H         1.236894        -0.484232         1.356788
