19
Iteration:   314charge 0 multiplicity 1
 C        -1.473038        -1.820967        -0.806928
 C        -1.374070        -0.331872        -0.855235
 C        -2.031925         0.483042        -1.932618
 C        -0.553697         0.140815        -2.090412
 C         0.304938         1.292766        -1.531977
 C         0.254844         1.082141         0.051575
 O        -0.878715         0.309435         0.348480
 C         1.518298         0.109670         0.458249
 O         2.642150         0.247051         0.048612
 H        -2.437894        -2.015956        -0.105060
 H        -1.652142        -2.317900        -1.780021
 H        -0.413659        -2.267633        -0.482261
 H        -2.735056        -0.001663        -2.578175
 H        -2.154900         1.472525        -1.610118
 H        -0.333722        -0.363024        -3.054771
 H         1.307973         1.267879        -1.869951
 H        -0.097733         2.252187        -1.918847
 H         0.382436         1.961072         0.686757
 H         1.177128        -0.871490         1.040709
