19
Iteration:  1116charge 0 multiplicity 1
 C        -1.636211        -1.838330        -0.778358
 C        -1.331569        -0.427376        -0.931396
 C        -2.157958         0.457129        -1.865671
 C        -0.702465         0.254608        -2.125849
 C         0.307236         1.321221        -1.579394
 C         0.350918         1.038323        -0.080696
 O        -0.761170         0.244680         0.181198
 C         1.566909         0.174985         0.463553
 O         2.784033         0.329796         0.324847
 H        -2.464982        -2.066161         0.048228
 H        -1.985913        -2.216001        -1.738374
 H        -0.750372        -2.392450        -0.416577
 H        -2.709904        -0.297027        -2.400171
 H        -2.658509         1.350467        -1.562798
 H        -0.360729        -0.380212        -2.940574
 H         1.193090         1.106834        -2.066151
 H         0.141884         2.299356        -1.721407
 H         0.248691         1.945972         0.621528
 H         1.232194        -0.817836         1.044698
