19
Iteration:  1697charge 0 multiplicity 1
 C        -1.369748        -1.893889        -0.781873
 C        -1.321445        -0.365730        -0.914069
 C        -2.129690         0.454558        -1.920874
 C        -0.543110         0.337750        -2.124050
 C         0.429825         1.265448        -1.467059
 C         0.301652         1.054882         0.081165
 O        -0.995402         0.252627         0.261439
 C         1.559634         0.254542         0.580591
 O         2.505437         0.165671        -0.094196
 H        -1.980761        -2.045346         0.172956
 H        -1.917699        -2.500016        -1.532822
 H        -0.370128        -2.128553        -0.482492
 H        -2.765109         0.068015        -2.725586
 H        -2.463251         1.433832        -1.578687
 H        -0.050203        -0.444979        -2.742583
 H         1.406580         1.080096        -1.752279
 H         0.169947         2.284891        -1.579090
 H         0.223396         1.901667         0.625521
 H         1.454410        -0.150928         1.651208
