19
Iteration:  2889
 C        -1.384848        -1.843875        -0.835267
 C        -1.300973        -0.387676        -0.893917
 C        -2.079178         0.404244        -1.844327
 C        -0.584562         0.220139        -2.120379
 C         0.484863         1.257675        -1.526193
 C         0.280589         1.090919         0.030322
 O        -0.946230         0.421187         0.264380
 C         1.396301         0.152311         0.547360
 O         2.551392         0.217257         0.027463
 H        -1.881434        -2.316356         0.160087
 H        -1.957970        -2.257404        -1.681157
 H        -0.244782        -2.067864        -0.803766
 H        -2.769260        -0.139019        -2.523393
 H        -2.495268         1.365568        -1.402712
 H        -0.214723        -0.383794        -2.925853
 H         1.444959         0.848857        -1.763328
 H         0.361622         2.307178        -1.665995
 H         0.184927         1.965624         0.698795
 H         1.138589        -0.770659         1.132351
