19
Iteration:   295charge 0 multiplicity 1
 C        -1.533160        -1.827242        -0.843935
 C        -1.325400        -0.336941        -0.852768
 C        -2.095240         0.453956        -1.954711
 C        -0.597363         0.232811        -1.976633
 C         0.392745         1.255153        -1.462267
 C         0.371383         0.968876        -0.042849
 O        -0.932164         0.336187         0.330002
 C         1.512604         0.144464         0.456097
 O         2.617584         0.292358         0.023880
 H        -2.491524        -2.263134        -0.439163
 H        -1.577565        -2.191893        -1.884122
 H        -0.602322        -2.360223        -0.589801
 H        -2.720471        -0.200937        -2.471875
 H        -2.609048         1.366127        -1.818084
 H        -0.149005        -0.660869        -2.457847
 H         1.473194         1.173508        -1.989361
 H         0.174601         2.384176        -1.610347
 H         0.475164         1.912837         0.580528
 H         1.351859        -0.418604         1.333419
