19
Iteration:  2269charge 0 multiplicity 1
 C        -1.573495        -1.954157        -0.768182
 C        -1.292007        -0.406064        -0.935388
 C        -2.072458         0.467116        -1.813468
 C        -0.585092         0.327451        -2.113581
 C         0.287020         1.315930        -1.569215
 C         0.341463         1.005103        -0.023070
 O        -0.876097         0.280816         0.241809
 C         1.549470         0.145457         0.354801
 O         2.679517         0.316208         0.262400
 H        -2.633727        -2.014614        -0.375804
 H        -1.438523        -2.510940        -1.665520
 H        -0.823884        -2.355423        -0.017839
 H        -2.777554         0.207018        -2.572781
 H        -2.387459         1.403214        -1.376737
 H        -0.394780        -0.413798        -2.935104
 H         1.323424         1.149898        -1.991547
 H        -0.117506         2.276950        -1.935046
 H         0.401537         2.117180         0.455168
 H         1.142424        -0.734453         0.958766
