19
Iteration:  3147
 C        -1.382438        -1.867232        -0.719029
 C        -1.279559        -0.412313        -0.920217
 C        -2.074955         0.430510        -1.968266
 C        -0.546657         0.278924        -2.078371
 C         0.410917         1.330834        -1.389396
 C         0.280424         0.979540         0.077353
 O        -1.004723         0.416087         0.240106
 C         1.496486         0.093721         0.502561
 O         2.530773         0.252305        -0.064158
 H        -1.943392        -2.114946         0.208175
 H        -2.032327        -2.604606        -1.543820
 H        -0.287586        -2.307347        -0.595342
 H        -2.714100         0.146482        -2.804574
 H        -2.397797         1.345713        -1.539350
 H        -0.086355        -0.106110        -2.948266
 H         1.361229         0.919673        -1.726143
 H         0.275264         2.318621        -1.804977
 H         0.271464         1.809427         0.714599
 H         1.279448        -0.618131         1.352264
