19
Iteration:  1866charge 0 multiplicity 1
 C        -1.533137        -1.864699        -0.784333
 C        -1.227276        -0.376837        -0.913075
 C        -2.013110         0.416976        -1.844311
 C        -0.460081         0.211818        -2.076938
 C         0.356792         1.382229        -1.496947
 C         0.300301         1.072080        -0.013080
 O        -0.906384         0.280009         0.320398
 C         1.396478         0.154116         0.442928
 O         2.532963         0.254530         0.018932
 H        -2.178244        -1.992423         0.046670
 H        -1.925832        -2.444101        -1.668747
 H        -0.427845        -2.382282        -0.543997
 H        -2.659648        -0.048693        -2.663554
 H        -2.331378         1.435544        -1.508295
 H        -0.152793        -0.464181        -2.953532
 H         1.474900         1.221907        -1.764070
 H        -0.086834         2.381352        -1.786919
 H         0.209491         1.906376         0.641056
 H         1.212262        -0.626824         1.189255
