19
Iteration:  1393
 C        -1.763840        -1.906596        -0.759434
 C        -1.287363        -0.450317        -0.975746
 C        -2.122625         0.462053        -1.899363
 C        -0.667823         0.320108        -2.164443
 C         0.346539         1.329136        -1.557074
 C         0.349480         0.963865        -0.061448
 O        -0.811313         0.133337         0.210712
 C         1.681538         0.318240         0.615121
 O         2.752098         0.317041         0.206883
 H        -2.627776        -2.042248        -0.231920
 H        -1.883298        -2.403222        -1.745233
 H        -0.981803        -2.231057        -0.029162
 H        -2.655070        -0.026590        -2.747425
 H        -2.668285         1.373226        -1.586722
 H        -0.555940        -0.132440        -3.148341
 H         1.315312         1.254202        -1.903399
 H         0.022530         2.276612        -1.860971
 H         0.142293         1.733068         0.738405
 H         1.423475         0.034791         1.650106
