19
Iteration:  4754
 C        -1.936986        -1.837724        -0.792804
 C        -1.339996        -0.452335        -1.122727
 C        -1.926855         0.485769        -1.995105
 C        -0.496184         0.069434        -2.255288
 C         0.671547         0.884367        -1.648380
 C         0.322770         0.972550        -0.214277
 O        -0.831730         0.124537         0.103017
 C         1.420380         0.492047         0.787471
 O         2.601864         0.737369         0.699935
 H        -1.894550        -2.346002        -1.750322
 H        -1.314565        -2.506420        -0.116722
 H        -2.956313        -1.834435        -0.587262
 H        -2.681504         0.109601        -2.686784
 H        -2.067387         1.406088        -1.477207
 H        -0.322915        -0.571926        -3.063208
 H         1.676987         0.364306        -1.756668
 H         0.714617         1.896930        -1.946887
 H        -0.122961         2.008407        -0.006051
 H         1.078591        -0.189403         1.637394
