19
Iteration:  2951
 C        -1.484447        -1.799828        -0.736505
 C        -1.191555        -0.430368        -0.975935
 C        -2.035783         0.389652        -1.961894
 C        -0.514133         0.255205        -2.054493
 C         0.193081         1.464950        -1.492947
 C         0.293261         1.053707         0.002079
 O        -0.865409         0.314695         0.274673
 C         1.492903         0.207267         0.524581
 O         2.581765         0.045436         0.033554
 H        -1.960510        -1.737967         0.170320
 H        -2.049150        -2.355868        -1.511635
 H        -0.608197        -2.444985        -0.557152
 H        -2.605777        -0.263346        -2.585434
 H        -2.501002         1.364643        -1.844045
 H         0.095887        -0.292111        -2.781287
 H         1.243189         1.691606        -1.934196
 H        -0.401345         2.462807        -1.467374
 H         0.185817         2.017829         0.727284
 H         1.104173        -0.414171         1.376601
