19
Iteration:  1808
 C        -1.382339        -1.855385        -0.725483
 C        -1.269379        -0.347879        -0.943070
 C        -2.115857         0.428909        -2.001778
 C        -0.633711         0.313325        -2.125308
 C         0.308583         1.338979        -1.454726
 C         0.326216         0.935253         0.023635
 O        -0.979006         0.326869         0.249643
 C         1.525800         0.230508         0.584844
 O         2.630903         0.137749         0.001672
 H        -1.968943        -2.011917         0.268130
 H        -1.907110        -2.415065        -1.571943
 H        -0.387189        -2.395622        -0.494944
 H        -2.717690        -0.136685        -2.683275
 H        -2.452871         1.421021        -1.657643
 H        -0.107444        -0.196360        -2.910499
 H         1.263023         1.322834        -1.900014
 H         0.046824         2.362188        -1.443899
 H         0.280759         1.867727         0.676026
 H         1.405555        -0.293850         1.580262
