19
Iteration:  4559charge 0 multiplicity 1
 C        -2.151417        -1.690039        -1.020030
 C        -1.379734        -0.419164        -1.074317
 C        -1.874103         0.849966        -1.626839
 C        -0.589311         0.063921        -2.233046
 C         0.757441         0.520031        -1.677136
 C         0.327682         0.700935        -0.254907
 O        -0.621289        -0.332513         0.097939
 C         1.584818         0.455270         0.649760
 O         2.431018         1.310634         0.729737
 H        -3.258908        -1.701976        -0.575231
 H        -2.167140        -2.313607        -1.934670
 H        -1.831215        -2.331115        -0.234691
 H        -2.743078         0.685890        -2.263936
 H        -1.862585         1.857692        -1.185682
 H        -0.790920        -0.427738        -3.240179
 H         1.608526        -0.283377        -1.666880
 H         1.227504         1.366940        -2.125774
 H         0.131880         1.803147        -0.060259
 H         1.635736        -0.576354         1.086369
