19
Iteration:  2797
 C        -1.654826        -1.913577        -0.739520
 C        -1.246437        -0.423354        -0.906516
 C        -2.090431         0.467167        -1.898346
 C        -0.523856         0.221696        -2.124370
 C         0.410344         1.395157        -1.535070
 C         0.297105         1.044856         0.034495
 O        -0.877917         0.219084         0.235340
 C         1.508057         0.228219         0.514100
 O         2.672179         0.285786         0.082615
 H        -2.538542        -2.051842        -0.203669
 H        -1.775275        -2.427810        -1.730195
 H        -0.943732        -2.495899        -0.201452
 H        -2.687681        -0.142449        -2.580771
 H        -2.536591         1.388327        -1.564291
 H        -0.365334        -0.296936        -3.083603
 H         1.510101         1.302733        -1.937451
 H        -0.106837         2.445380        -1.754982
 H         0.068033         1.868325         0.634448
 H         1.278287        -0.423912         1.385335
