19
Iteration:   313charge 0 multiplicity 1
 C        -1.475825        -1.826396        -0.814727
 C        -1.378112        -0.325407        -0.845954
 C        -2.037598         0.478047        -1.929171
 C        -0.552249         0.143437        -2.087475
 C         0.311309         1.289631        -1.531878
 C         0.260328         1.071778         0.050469
 O        -0.877439         0.312446         0.350007
 C         1.521309         0.116538         0.456467
 O         2.637480         0.248940         0.047403
 H        -2.425047        -2.023075        -0.123855
 H        -1.638784        -2.294590        -1.795516
 H        -0.423212        -2.254908        -0.484151
 H        -2.729748        -0.051343        -2.604285
 H        -2.140126         1.537605        -1.646592
 H        -0.317838        -0.358531        -3.041744
 H         1.281198         1.249047        -1.861699
 H        -0.099659         2.229154        -1.896101
 H         0.385910         1.956425         0.673025
 H         1.158169        -0.856616         1.043624
