19
Iteration:  2142charge 0 multiplicity 1
 C        -1.543088        -1.871700        -0.784990
 C        -1.297915        -0.412566        -0.938930
 C        -2.180777         0.458599        -1.934442
 C        -0.584320         0.253656        -2.094344
 C         0.328661         1.324904        -1.481255
 C         0.321850         1.019290        -0.011789
 O        -0.900346         0.257743         0.278588
 C         1.559577         0.242013         0.510130
 O         2.714610         0.248502         0.117336
 H        -2.344108        -2.108691        -0.053202
 H        -1.927055        -2.201103        -1.769004
 H        -0.614622        -2.472990        -0.463805
 H        -2.715126         0.003590        -2.754743
 H        -2.497616         1.465426        -1.703978
 H        -0.210308        -0.392651        -2.991785
 H         1.314210         1.205478        -2.011283
 H        -0.015915         2.324473        -1.585901
 H         0.313984         1.904470         0.717105
 H         1.425046        -0.512775         1.300330
