19
Iteration:  1735charge 0 multiplicity 1
 C        -1.358341        -1.899061        -0.792622
 C        -1.294682        -0.369329        -0.950531
 C        -2.130072         0.440287        -1.849650
 C        -0.630200         0.289542        -2.067590
 C         0.402204         1.320055        -1.481645
 C         0.347462         1.032393         0.001683
 O        -0.946437         0.321179         0.257571
 C         1.510720         0.279584         0.578660
 O         2.517805         0.109359        -0.031523
 H        -2.262027        -2.282759        -0.442183
 H        -1.134230        -2.299502        -1.771123
 H        -0.553443        -2.401430        -0.203003
 H        -2.826487         0.000088        -2.556673
 H        -2.341719         1.457815        -1.472465
 H        -0.273962        -0.457473        -2.768563
 H         1.488002         1.284771        -1.900223
 H         0.092876         2.387363        -1.753777
 H         0.249315         2.051198         0.601130
 H         1.248885        -0.267800         1.574588
