19
Iteration:  4048charge 0 multiplicity 1
 C        -1.976235        -1.832479        -0.868537
 C        -1.407427        -0.401218        -1.017390
 C        -1.957724         0.781000        -1.872113
 C        -0.661246         0.098803        -2.227178
 C         0.675724         0.632441        -1.755892
 C         0.358488         0.863573        -0.195581
 O        -0.625430        -0.101480         0.125150
 C         1.459830         0.454019         0.706802
 O         2.593063         0.984845         0.715059
 H        -1.812007        -2.398492        -1.902407
 H        -1.539849        -2.457985        -0.166660
 H        -3.101168        -1.802938        -0.801170
 H        -2.960011         0.693024        -2.398211
 H        -1.948045         1.855555        -1.477994
 H        -0.727665        -0.468284        -3.182369
 H         1.500087        -0.145945        -1.777952
 H         1.210853         1.458300        -2.209878
 H        -0.072919         1.843214         0.072633
 H         1.086235        -0.365824         1.365164
