19
Iteration:  2902charge 0 multiplicity 1
 C        -1.339795        -1.887453        -0.716231
 C        -1.286410        -0.354509        -0.962615
 C        -2.100748         0.436898        -1.937234
 C        -0.561977         0.305476        -2.058629
 C         0.477459         1.248884        -1.447915
 C         0.275839         1.031696         0.075532
 O        -0.994105         0.371604         0.233120
 C         1.418820         0.180604         0.466601
 O         2.555595         0.202293         0.008273
 H        -1.768367        -2.117366         0.392590
 H        -2.089777        -2.299644        -1.540995
 H        -0.449046        -2.542348        -0.924227
 H        -2.758922        -0.056594        -2.689206
 H        -2.538147         1.369222        -1.514534
 H        -0.297318        -0.281605        -2.920224
 H         1.465091         0.963229        -1.711336
 H         0.349688         2.192098        -1.879943
 H         0.348871         2.008059         0.741708
 H         1.151801        -0.466934         1.334289
