19
Iteration:  4671charge 0 multiplicity 1
 C        -2.076904        -1.845434        -0.845957
 C        -1.402398        -0.496867        -1.166249
 C        -1.921406         0.671854        -1.929139
 C        -0.479418         0.088484        -2.239920
 C         0.712105         0.703309        -1.592886
 C         0.282779         0.893657        -0.060845
 O        -0.752209        -0.103893         0.092462
 C         1.504663         0.503434         0.729491
 O         2.586018         1.006809         0.607480
 H        -1.286799        -2.381732        -0.240757
 H        -2.963582        -1.581871        -0.376599
 H        -2.330783        -2.284414        -1.869763
 H        -2.747671         0.409589        -2.582687
 H        -1.976642         1.675231        -1.572240
 H        -0.388590        -0.302551        -3.218517
 H         1.573242         0.021348        -1.643825
 H         1.130517         1.607630        -2.124404
 H         0.010603         1.872497         0.271686
 H         1.214040        -0.209540         1.622630
