19
Iteration:  4085charge 0 multiplicity 1
 C        -2.228778        -1.868043        -0.998779
 C        -1.354984        -0.521866        -1.039462
 C        -1.967561         0.681441        -1.847043
 C        -0.602223         0.017870        -2.240903
 C         0.658255         0.803046        -1.719424
 C         0.355174         0.795751        -0.170738
 O        -0.620600        -0.121947         0.091658
 C         1.525484         0.706875         0.890396
 O         2.717426         0.891548         0.636216
 H        -2.198663        -2.350404        -1.950374
 H        -2.134489        -2.473626         0.007050
 H        -3.385022        -1.489038        -1.033272
 H        -2.833827         0.447900        -2.409302
 H        -1.930504         1.596265        -1.316113
 H        -0.499404        -0.464887        -3.202609
 H         1.545744         0.184082        -1.973265
 H         0.870098         1.798912        -2.270732
 H         0.131754         1.956105         0.242145
 H         1.282691         0.585516         1.972277
