19
Iteration:  2528
 C        -1.712028        -1.847349        -0.788057
 C        -1.430352        -0.442081        -0.991554
 C        -2.062859         0.542411        -1.906765
 C        -0.630913         0.274084        -2.095686
 C         0.406021         1.184040        -1.475273
 C         0.375699         0.945487        -0.029266
 O        -0.858272         0.081749         0.239279
 C         1.574559         0.305135         0.550992
 O         2.775378         0.447737         0.128052
 H        -2.252449        -1.964154         0.097138
 H        -2.326001        -2.231334        -1.502022
 H        -0.867034        -2.432850        -0.766723
 H        -2.868051         0.160454        -2.540418
 H        -2.447086         1.452695        -1.494438
 H        -0.104573        -0.276247        -2.879288
 H         1.426855         1.129947        -1.861954
 H         0.139139         2.243540        -1.877434
 H         0.128814         1.778539         0.604067
 H         1.265722        -0.389093         1.358521
