19
Iteration:  2079charge 0 multiplicity 1
 C        -1.546487        -1.922928        -0.789973
 C        -1.289804        -0.412686        -0.964980
 C        -2.048332         0.523555        -1.782995
 C        -0.558353         0.249402        -2.077403
 C         0.434868         1.300783        -1.554622
 C         0.256346         1.041495        -0.038868
 O        -0.881848         0.218378         0.348695
 C         1.503657         0.195272         0.489382
 O         2.576975         0.316370         0.051401
 H        -2.588973        -2.233769        -0.378311
 H        -1.365276        -2.322669        -1.817764
 H        -0.756805        -2.304598        -0.279774
 H        -2.635932         0.089102        -2.594434
 H        -2.301645         1.514932        -1.412306
 H        -0.234949        -0.206276        -3.067689
 H         1.360774         0.816867        -1.773166
 H         0.266355         2.271822        -2.049127
 H         0.103891         2.011014         0.479625
 H         1.009670        -0.405350         1.317865
