19
Iteration:  1219charge 0 multiplicity 1
 C        -1.646241        -1.884100        -0.835665
 C        -1.338071        -0.434915        -0.929588
 C        -2.168448         0.514851        -1.885687
 C        -0.658229         0.229852        -2.106716
 C         0.390062         1.200103        -1.561039
 C         0.388300         0.917087         0.021198
 O        -0.883378         0.342396         0.244125
 C         1.595228         0.067359         0.390911
 O         2.751500         0.511184         0.271217
 H        -2.526548        -1.914903        -0.166129
 H        -1.766059        -2.529461        -1.797127
 H        -0.796100        -2.413753        -0.222553
 H        -2.973941         0.043411        -2.448958
 H        -2.554753         1.430350        -1.384609
 H        -0.334394        -0.294621        -3.006475
 H         1.433523         1.125060        -1.923769
 H        -0.003675         2.245286        -1.687029
 H         0.452887         1.766158         0.641456
 H         1.435789        -0.942109         0.820587
