19
Iteration:  3944charge 0 multiplicity 1
 C        -2.195335        -1.651848        -0.776519
 C        -1.356947        -0.473311        -1.084965
 C        -1.869295         0.728177        -1.914959
 C        -0.590043        -0.108718        -2.356179
 C         0.577648         0.720618        -1.834776
 C         0.385167         0.858901        -0.206504
 O        -0.610659        -0.183481         0.086581
 C         1.663796         0.417249         0.527819
 O         2.484797         1.123397         1.046028
 H        -3.201485        -1.382589        -0.648235
 H        -2.033601        -2.537505        -1.504544
 H        -1.838731        -2.086684         0.217553
 H        -2.818773         0.447885        -2.268841
 H        -1.631266         1.700484        -1.600206
 H        -0.556189        -0.694063        -3.243651
 H         1.610891         0.233348        -2.009254
 H         0.500824         1.802315        -2.166499
 H         0.081052         1.729741         0.264155
 H         1.534229        -0.647921         0.798730
