19
Iteration:  2751charge 0 multiplicity 1
 C        -1.589428        -1.830631        -0.830329
 C        -1.422548        -0.406058        -0.871247
 C        -1.985972         0.478666        -1.963732
 C        -0.543905         0.175041        -2.061007
 C         0.461982         1.222098        -1.461003
 C         0.255322         0.971149         0.029998
 O        -0.923368         0.246677         0.323619
 C         1.540766         0.189639         0.590920
 O         2.600365         0.449476        -0.053847
 H        -2.051583        -2.196693         0.076173
 H        -2.353715        -2.107646        -1.622469
 H        -0.772623        -2.427523        -0.956234
 H        -2.697636         0.066948        -2.707501
 H        -2.108630         1.567530        -1.740407
 H        -0.039893        -0.573330        -2.653093
 H         1.544738         0.927758        -1.813006
 H         0.222800         2.339695        -1.909641
 H         0.320980         1.776752         0.636388
 H         1.505605        -0.619250         1.359526
