19
Iteration:  3546charge 0 multiplicity 1
 C        -1.794886        -1.913937        -1.037039
 C        -1.380547        -0.425612        -0.993718
 C        -2.071186         0.647815        -1.907159
 C        -0.662883         0.214287        -2.210451
 C         0.634836         0.821379        -1.503576
 C         0.285177         0.936847        -0.070319
 O        -0.852413         0.011558         0.245051
 C         1.568091         0.571204         0.739285
 O         2.694280         0.634855         0.371344
 H        -0.781934        -2.516976        -1.160977
 H        -2.357509        -2.128504        -0.126039
 H        -2.428905        -2.093606        -1.994580
 H        -2.782906         0.196667        -2.598663
 H        -2.379779         1.577166        -1.463851
 H        -0.403295        -0.458819        -3.058214
 H         1.453654         0.161077        -1.634762
 H         1.019655         1.812277        -1.776203
 H        -0.008748         1.878224         0.176683
 H         1.262584         0.495701         1.768217
