19
Iteration:  3323charge 0 multiplicity 1
 C        -1.640215        -1.848084        -0.802808
 C        -1.321080        -0.465001        -1.060763
 C        -2.124037         0.479350        -1.895424
 C        -0.673036         0.326081        -2.260594
 C         0.412188         1.143007        -1.614459
 C         0.304427         0.956579        -0.102477
 O        -0.834403         0.146152         0.222253
 C         1.559441         0.289940         0.729219
 O         2.757143         0.408617         0.365801
 H        -1.448092        -2.386189        -1.732148
 H        -1.069157        -2.217088         0.168333
 H        -2.715078        -1.863441        -0.517640
 H        -2.718626         0.026904        -2.727081
 H        -2.592779         1.434537        -1.564800
 H        -0.546120        -0.263787        -3.205277
 H         1.450287         1.201627        -1.980677
 H         0.105349         2.156250        -1.719866
 H         0.306202         2.077982         0.450269
 H         1.262990        -0.145047         1.700293
