19
Iteration:  3747charge 0 multiplicity 1
 C        -2.256720        -1.738256        -1.024395
 C        -1.420169        -0.447582        -1.041442
 C        -1.833870         0.725370        -1.785005
 C        -0.570377         0.087668        -2.255667
 C         0.685245         0.581409        -1.715298
 C         0.382894         0.668922        -0.192433
 O        -0.672742        -0.280387         0.184605
 C         1.688888         0.466310         0.535549
 O         2.509136         1.336948         0.883822
 H        -3.107270        -1.653488        -0.381036
 H        -2.842614        -1.886747        -1.917089
 H        -1.548246        -2.521862        -0.680214
 H        -2.764598         0.614933        -2.334942
 H        -1.874655         1.734319        -1.382073
 H        -0.724563        -0.504688        -3.158283
 H         1.434147        -0.095222        -1.994348
 H         1.034449         1.583683        -2.006302
 H         0.129712         1.795460        -0.110980
 H         1.784027        -0.598557         0.828589
