19
Iteration:  1749charge 0 multiplicity 1
 C        -1.393558        -1.911265        -0.829625
 C        -1.250653        -0.442269        -0.852568
 C        -2.082722         0.452270        -1.798880
 C        -0.540948         0.250970        -2.126196
 C         0.332994         1.399789        -1.593710
 C         0.283582         1.100504        -0.020309
 O        -0.858655         0.346016         0.266745
 C         1.414747         0.222451         0.577016
 O         2.575999         0.072077         0.027384
 H        -2.518103        -2.227017        -0.437253
 H        -1.227685        -2.383045        -1.821358
 H        -0.659844        -2.202227        -0.109289
 H        -2.848747        -0.047563        -2.428311
 H        -2.553766         1.314844        -1.281892
 H        -0.328223        -0.071010        -3.189137
 H         1.357324         1.323348        -2.035857
 H        -0.172614         2.397312        -1.633868
 H         0.201001         2.136566         0.658257
 H         1.117523        -0.320905         1.489748
