19
Iteration:  1027
 C        -1.624222        -1.825804        -0.827337
 C        -1.275535        -0.434177        -0.899172
 C        -2.122935         0.453683        -1.818266
 C        -0.601987         0.207364        -2.124750
 C         0.397418         1.287355        -1.601414
 C         0.362385         1.021058        -0.021747
 O        -0.802530         0.239843         0.273319
 C         1.462139         0.179028         0.515769
 O         2.662563         0.357826         0.171422
 H        -2.297485        -2.015952         0.113612
 H        -2.053014        -2.131574        -1.851152
 H        -0.750732        -2.446470        -0.634251
 H        -2.751211        -0.068112        -2.514084
 H        -2.405179         1.475482        -1.615858
 H        -0.361550        -0.319014        -3.077904
 H         1.381728         1.196970        -1.964813
 H         0.004997         2.206731        -1.814458
 H         0.189875         1.893849         0.547261
 H         1.124678        -0.530200         1.212576
