19
Iteration:  4636
 C        -2.168368        -1.745559        -1.079668
 C        -1.327467        -0.459134        -0.987724
 C        -1.888659         0.712125        -1.857805
 C        -0.603004        -0.032289        -2.247324
 C         0.636462         0.669214        -1.739699
 C         0.363711         0.827604        -0.121800
 O        -0.624871        -0.195545         0.186818
 C         1.524790         0.550993         0.720170
 O         2.583381         1.112323         0.718088
 H        -2.306168        -2.435743        -0.090929
 H        -3.241363        -1.590783        -1.185296
 H        -1.770104        -2.487329        -1.808870
 H        -2.791660         0.461268        -2.378314
 H        -1.743517         1.760652        -1.664281
 H        -0.557575        -0.578439        -3.167541
 H         1.527891        -0.023754        -1.869507
 H         0.727694         1.644347        -2.172215
 H         0.200317         1.828828         0.144515
 H         1.185982        -0.026714         1.687145
