19
Iteration:  4114charge 0 multiplicity 1
 C        -2.117627        -1.695916        -0.960210
 C        -1.385147        -0.459446        -1.045383
 C        -1.886905         0.692119        -1.947961
 C        -0.547980         0.012384        -2.227046
 C         0.643812         0.737373        -1.572260
 C         0.230973         0.811868        -0.071767
 O        -0.647652        -0.305413         0.183622
 C         1.516906         0.812810         0.795845
 O         2.673066         0.829658         0.489328
 H        -2.200867        -2.115451        -1.986595
 H        -1.701075        -2.387018        -0.302890
 H        -3.170348        -1.529209        -0.754133
 H        -2.717449         0.470524        -2.664974
 H        -2.071340         1.682834        -1.498767
 H        -0.393880        -0.321775        -3.226673
 H         1.615086         0.246001        -1.722352
 H         0.818321         1.655328        -2.088101
 H        -0.223560         1.780540         0.149733
 H         1.208804         0.675096         1.874488
