19
Iteration:  4196
 C        -1.921474        -1.801610        -0.925460
 C        -1.404806        -0.395148        -1.003253
 C        -2.067184         0.666961        -2.005284
 C        -0.700373         0.095489        -2.249689
 C         0.643863         0.704314        -1.783491
 C         0.385705         0.826488        -0.140183
 O        -0.745172         0.043830         0.119096
 C         1.555054         0.485796         0.891250
 O         2.682207         0.862663         0.719574
 H        -2.919509        -1.962315        -1.468987
 H        -1.151650        -2.600520        -1.398070
 H        -1.855437        -2.116376         0.203817
 H        -2.654789         0.072628        -2.707645
 H        -2.313367         1.715620        -1.754088
 H        -0.551238        -0.693551        -3.023423
 H         1.432100        -0.040707        -1.994570
 H         0.739142         1.708010        -2.277985
 H         0.234472         1.846352        -0.072728
 H         1.168866         0.079384         1.875084
