19
Iteration:  1511charge 0 multiplicity 1
 C        -1.612366        -1.817965        -0.715578
 C        -1.328294        -0.405966        -1.047130
 C        -2.144696         0.459797        -1.949815
 C        -0.612644         0.281664        -2.104240
 C         0.221345         1.343793        -1.508653
 C         0.356100         0.906540        -0.049994
 O        -0.863484         0.202555         0.212035
 C         1.662108         0.255666         0.568135
 O         2.756845         0.259674         0.204662
 H        -2.085996        -2.067755         0.232446
 H        -2.236190        -2.335573        -1.456318
 H        -0.675328        -2.340887        -0.629666
 H        -2.653097        -0.274968        -2.668333
 H        -2.687255         1.405880        -1.727079
 H        -0.148001        -0.157242        -3.003920
 H         1.240847         1.437304        -2.019889
 H        -0.210279         2.397413        -1.601061
 H         0.324565         1.945124         0.535578
 H         1.347642        -0.206628         1.546056
