19
Iteration:   204
 C        -1.627871        -1.849644        -0.919898
 C        -1.245095        -0.418455        -0.956552
 C        -2.123459         0.468558        -1.793329
 C        -0.637187         0.227905        -2.094437
 C         0.354745         1.251128        -1.532960
 C         0.332506         1.087411         0.004483
 O        -0.869517         0.194763         0.301819
 C         1.570131         0.345278         0.586370
 O         2.694198         0.211868         0.081541
 H        -2.389596        -2.194164        -0.053394
 H        -2.331528        -2.198444        -1.731840
 H        -0.690093        -2.571035        -0.979872
 H        -2.795358         0.195532        -2.597810
 H        -2.378882         1.516638        -1.505157
 H        -0.335496        -0.387583        -2.919622
 H         1.415799         0.980476        -1.825212
 H         0.310834         2.327795        -1.983735
 H         0.194128         2.077752         0.548352
 H         1.327581        -0.118155         1.582339
