19
Iteration:  4247charge 0 multiplicity 1
 C        -1.921632        -1.811605        -0.765508
 C        -1.330187        -0.492916        -1.025982
 C        -1.966448         0.631256        -1.877634
 C        -0.617998         0.004240        -2.265180
 C         0.586930         0.859489        -1.788283
 C         0.415944         0.913958        -0.268784
 O        -0.736836         0.118685         0.122300
 C         1.508657         0.308077         0.519397
 O         2.497925         0.877996         0.925532
 H        -2.505436        -1.990564        -1.576710
 H        -1.198426        -2.533693        -0.498397
 H        -2.588645        -1.694590         0.143571
 H        -2.785997         0.438911        -2.547855
 H        -1.841455         1.562721        -1.339910
 H        -0.342528        -0.492023        -3.236102
 H         1.462427         0.230412        -2.046319
 H         0.801468         1.851575        -2.288817
 H         0.348859         2.080075        -0.058965
 H         1.372942        -0.852630         0.559702
