19
Iteration:   504charge 0 multiplicity 1
 C        -1.591820        -1.898130        -0.844863
 C        -1.294707        -0.362445        -0.864684
 C        -2.021265         0.448613        -1.891204
 C        -0.545933         0.203807        -2.061574
 C         0.268951         1.297233        -1.520928
 C         0.278336         1.094718        -0.010015
 O        -0.803230         0.271209         0.347837
 C         1.529433         0.303982         0.489078
 O         2.629618         0.158898         0.036157
 H        -2.385968        -2.042631        -0.036322
 H        -2.150909        -2.202826        -1.863259
 H        -0.656240        -2.493259        -0.933121
 H        -2.770326        -0.027218        -2.571867
 H        -2.167940         1.524366        -1.567785
 H        -0.137604        -0.508693        -2.780770
 H         1.287437         1.349307        -1.901871
 H         0.001610         2.314994        -1.720830
 H         0.222855         2.038670         0.559988
 H         1.066612        -0.405759         1.314389
