19
Iteration:  2547charge 0 multiplicity 1
 C        -1.869248        -1.913246        -0.825305
 C        -1.242540        -0.451876        -0.997724
 C        -2.124090         0.463714        -1.871364
 C        -0.577361         0.206797        -2.131645
 C         0.319805         1.335131        -1.547544
 C         0.335679         0.988481        -0.018691
 O        -0.778497         0.168850         0.270570
 C         1.604016         0.212568         0.599878
 O         2.787904         0.446064         0.171947
 H        -2.289163        -2.039669         0.153442
 H        -2.796841        -2.023863        -1.592018
 H        -0.973042        -2.696785        -0.993257
 H        -2.752547        -0.069438        -2.620014
 H        -2.437689         1.516529        -1.688768
 H        -0.440684        -0.342730        -3.093119
 H         1.358678         1.341563        -1.941765
 H         0.137555         2.418290        -1.695809
 H         0.298431         1.868744         0.606003
 H         1.405672        -0.425352         1.485970
