19
Iteration:  2799charge 0 multiplicity 1
 C        -1.649977        -1.910316        -0.733294
 C        -1.252924        -0.424405        -0.917268
 C        -2.111520         0.464487        -1.890726
 C        -0.512989         0.245893        -2.129619
 C         0.406578         1.394407        -1.537265
 C         0.305254         1.029113         0.021319
 O        -0.872859         0.213346         0.233003
 C         1.525919         0.233912         0.503369
 O         2.657540         0.277233         0.099306
 H        -2.619932        -2.037046        -0.237955
 H        -1.784273        -2.440615        -1.650871
 H        -0.907439        -2.525664        -0.118755
 H        -2.629649        -0.193316        -2.586130
 H        -2.598971         1.357793        -1.556273
 H        -0.272123        -0.225449        -3.123821
 H         1.429290         1.343050        -2.042617
 H        -0.035781         2.400500        -1.726577
 H         0.088071         1.934841         0.707392
 H         1.261567        -0.375379         1.407854
