19
Iteration:   130
 C        -1.654818        -1.940823        -0.852826
 C        -1.324369        -0.437779        -0.924516
 C        -2.084846         0.690935        -1.692318
 C        -0.687278         0.309159        -2.091000
 C         0.493693         1.138144        -1.613136
 C         0.362163         1.049267        -0.149670
 O        -0.650578         0.003847         0.220572
 C         1.406241         0.347410         0.579618
 O         2.567407         0.354745         0.163030
 H        -2.486283        -2.038236        -0.168475
 H        -1.989981        -2.378067        -1.698444
 H        -0.923083        -2.611263        -0.448673
 H        -2.841621         0.437176        -2.404274
 H        -2.248916         1.709303        -1.297942
 H        -0.499077        -0.260631        -2.986627
 H         1.499906         0.736085        -2.057223
 H         0.371921         2.253286        -1.931944
 H         0.137751         2.021886         0.385758
 H         1.190409        -0.004087         1.585180
