19
Iteration:  1421charge 0 multiplicity 1
 C        -1.626344        -1.861007        -0.831238
 C        -1.306764        -0.392260        -0.961554
 C        -2.162880         0.522040        -1.923988
 C        -0.652927         0.239332        -2.155489
 C         0.373846         1.170222        -1.496477
 C         0.343209         0.951150        -0.018584
 O        -0.828522         0.178386         0.261778
 C         1.557706         0.348082         0.616082
 O         2.753615         0.343768         0.118630
 H        -2.667515        -2.139507        -0.323770
 H        -1.614814        -2.249258        -1.825873
 H        -0.855493        -2.214976        -0.162985
 H        -2.947404         0.115230        -2.586018
 H        -2.471504         1.413428        -1.335045
 H        -0.421953        -0.456083        -2.953315
 H         1.480050         1.060652        -1.883033
 H        -0.018474         2.201518        -1.810478
 H         0.130336         1.873141         0.666775
 H         1.287139        -0.204916         1.568304
