19
Iteration:  1748charge 0 multiplicity 1
 C        -1.390643        -1.912429        -0.825451
 C        -1.254858        -0.443276        -0.854338
 C        -2.089609         0.451361        -1.805911
 C        -0.543527         0.250802        -2.124032
 C         0.344907         1.398200        -1.585131
 C         0.291268         1.089921        -0.020648
 O        -0.866737         0.345871         0.265974
 C         1.415658         0.235318         0.582201
 O         2.574397         0.073360         0.019977
 H        -2.480805        -2.233562        -0.474720
 H        -1.249262        -2.343862        -1.818411
 H        -0.645105        -2.188311        -0.102481
 H        -2.867883        -0.036295        -2.424334
 H        -2.548132         1.336048        -1.286841
 H        -0.340803        -0.104427        -3.178994
 H         1.397018         1.309321        -2.051075
 H        -0.181676         2.410814        -1.615234
 H         0.186247         2.145005         0.659432
 H         1.134746        -0.362070         1.502893
