19
Iteration:  4797
 C        -1.845952        -1.852669        -0.789853
 C        -1.394342        -0.372325        -1.060810
 C        -1.882240         0.483159        -2.160382
 C        -0.460926         0.036431        -2.269195
 C         0.595117         0.876386        -1.640054
 C         0.256357         0.980410        -0.083572
 O        -0.878657         0.124271         0.124544
 C         1.386260         0.526755         0.752396
 O         2.630539         0.669465         0.680881
 H        -2.743169        -2.014983        -1.261958
 H        -0.846914        -2.431265        -1.041968
 H        -1.844710        -1.927684         0.247264
 H        -2.640265         0.126875        -2.886001
 H        -1.962012         1.527197        -1.890175
 H        -0.105707        -0.701370        -2.910851
 H         1.669822         0.487363        -1.769746
 H         0.517841         1.894359        -1.989762
 H        -0.024790         1.934563         0.263274
 H         1.099390        -0.238926         1.570392
