19
Iteration:  4424
 C        -1.931561        -1.826463        -0.855331
 C        -1.410224        -0.357552        -1.006824
 C        -2.160335         0.623187        -1.872338
 C        -0.720336         0.088042        -2.260785
 C         0.658925         0.655181        -1.850924
 C         0.507562         0.852035        -0.359889
 O        -0.595754         0.093368         0.117253
 C         1.686116         0.285016         0.554238
 O         2.412519         1.015050         1.119884
 H        -2.881977        -1.683137        -1.213283
 H        -1.465267        -2.494937        -1.635306
 H        -1.988362        -2.102783         0.207102
 H        -3.019818         0.380282        -2.500999
 H        -2.285672         1.645840        -1.482672
 H        -0.696052        -0.484756        -3.148124
 H         1.447215        -0.076802        -1.982721
 H         0.886707         1.618121        -2.394796
 H         0.528115         1.967338        -0.208221
 H         1.852178        -0.833784         0.607778
