19
Iteration:  1751charge 0 multiplicity 1
 C        -1.405701        -1.910828        -0.834970
 C        -1.242524        -0.435496        -0.858061
 C        -2.069551         0.451327        -1.784932
 C        -0.540726         0.254900        -2.129181
 C         0.309218         1.401344        -1.605835
 C         0.273086         1.124164        -0.017491
 O        -0.845866         0.344180         0.268745
 C         1.422344         0.200238         0.560323
 O         2.572037         0.070212         0.044804
 H        -2.513651        -2.199762        -0.390640
 H        -1.190455        -2.445337        -1.809850
 H        -0.672106        -2.258081        -0.105941
 H        -2.795631        -0.068387        -2.433620
 H        -2.544649         1.279062        -1.282198
 H        -0.309250        -0.022700        -3.171154
 H         1.279274         1.361037        -1.996738
 H        -0.141975         2.366055        -1.689690
 H         0.235878         2.061805         0.615031
 H         1.085398        -0.251904         1.475921
