19
Iteration:  3901
 C        -2.148763        -1.673191        -0.808602
 C        -1.362671        -0.450403        -1.084805
 C        -1.970749         0.707061        -1.820805
 C        -0.656181         0.075393        -2.402388
 C         0.691760         0.553956        -1.797886
 C         0.475026         0.728699        -0.351154
 O        -0.634514        -0.138410         0.140106
 C         1.722806         0.397245         0.542759
 O         2.367772         1.240484         1.126996
 H        -2.711489        -1.523779         0.090497
 H        -2.869569        -1.932754        -1.723993
 H        -1.564305        -2.659297        -0.603400
 H        -2.818188         0.437295        -2.408212
 H        -2.008720         1.725152        -1.523279
 H        -0.607749        -0.453209        -3.333371
 H         1.463587        -0.366863        -1.967098
 H         1.166998         1.479651        -2.331797
 H         0.203698         1.791646        -0.130065
 H         2.005534        -0.691909         0.550189
