19
Iteration:  2430charge 0 multiplicity 1
 C        -1.606954        -1.853512        -0.752278
 C        -1.285412        -0.381880        -0.951209
 C        -2.200896         0.545548        -1.845408
 C        -0.687650         0.273587        -2.188847
 C         0.344042         1.265057        -1.626570
 C         0.389544         0.920096        -0.082954
 O        -0.781895         0.095042         0.176777
 C         1.530399         0.356186         0.608162
 O         2.783958         0.289655         0.284648
 H        -2.653737        -2.149403        -0.239298
 H        -1.877962        -2.201846        -1.716628
 H        -0.923801        -2.565343        -0.393101
 H        -2.940750         0.050644        -2.475371
 H        -2.582096         1.430089        -1.277665
 H        -0.428897        -0.384720        -3.071452
 H         1.240057         1.292330        -2.256494
 H        -0.091752         2.322638        -1.658503
 H         0.171919         2.012907         0.317950
 H         1.275330         0.015947         1.647690
