19
Iteration:  3909charge 0 multiplicity 1
 C        -2.214417        -1.714657        -0.751562
 C        -1.335505        -0.421083        -1.066695
 C        -1.916401         0.676704        -1.860525
 C        -0.616560         0.128924        -2.362322
 C         0.726487         0.590645        -1.872515
 C         0.481010         0.751375        -0.267964
 O        -0.650310        -0.171920         0.118071
 C         1.717913         0.369164         0.509302
 O         2.341531         1.225037         1.098784
 H        -2.952057        -1.478181        -0.002547
 H        -2.758246        -2.023826        -1.622119
 H        -1.495362        -2.518227        -0.344656
 H        -2.750464         0.316281        -2.452974
 H        -2.213361         1.665282        -1.477527
 H        -0.702893        -0.318884        -3.395331
 H         1.570926        -0.106919        -2.057063
 H         1.024803         1.497816        -2.433826
 H         0.264552         1.748821        -0.114303
 H         1.851218        -0.703294         0.714460
