19
Iteration:  3236charge 0 multiplicity 1
 C        -1.579612        -1.892104        -0.738252
 C        -1.261595        -0.444129        -1.052452
 C        -2.036848         0.467365        -2.039188
 C        -0.624699         0.307206        -2.080008
 C         0.413348         1.313263        -1.465867
 C         0.321691         0.962039        -0.032092
 O        -0.962672         0.268836         0.245204
 C         1.563874         0.224165         0.596067
 O         2.665573         0.324089         0.138899
 H        -0.614496        -2.471331        -0.594033
 H        -2.232262        -1.938113         0.325319
 H        -2.323731        -2.446999        -1.402733
 H        -2.621794        -0.131831        -2.743568
 H        -2.527668         1.395470        -1.648418
 H        -0.291591        -0.324855        -2.923815
 H         1.386239         1.146698        -1.905498
 H        -0.023067         2.287259        -1.578503
 H         0.136802         1.659551         0.739917
 H         1.317810        -0.426278         1.510370
