19
Iteration:  2844charge 0 multiplicity 1
 C        -1.439790        -1.904761        -0.722130
 C        -1.370474        -0.403238        -1.021137
 C        -2.149798         0.459414        -1.860677
 C        -0.616471         0.336625        -2.139014
 C         0.267744         1.363208        -1.603829
 C         0.351569         1.049411        -0.042198
 O        -0.897219         0.272786         0.203447
 C         1.571277         0.218110         0.582899
 O         2.718822         0.135831         0.209047
 H        -2.480745        -2.176215        -0.341442
 H        -1.308880        -2.511833        -1.560572
 H        -0.656314        -2.196065         0.095465
 H        -2.855142        -0.106772        -2.478052
 H        -2.408068         1.503386        -1.648939
 H        -0.281355        -0.295857        -2.986224
 H         1.318074         1.368524        -1.937888
 H        -0.268569         2.301932        -1.783675
 H         0.273715         2.006697         0.471693
 H         1.159289        -0.375020         1.430000
