19
Iteration:  2830
 C        -1.525249        -1.858938        -0.649257
 C        -1.170813        -0.406455        -1.000313
 C        -2.212832         0.463058        -1.954497
 C        -0.691087         0.293347        -2.234544
 C         0.289871         1.393628        -1.546189
 C         0.323778         1.006907         0.016409
 O        -0.834557         0.236853         0.173533
 C         1.532001         0.212907         0.611333
 O         2.735448         0.167727         0.188122
 H        -2.519230        -1.917038        -0.355224
 H        -1.403474        -2.574449        -1.490773
 H        -0.907710        -2.219958         0.150966
 H        -2.851391        -0.125242        -2.611981
 H        -2.673763         1.285350        -1.436960
 H        -0.346250        -0.128082        -3.204947
 H         1.226036         1.433477        -2.201448
 H        -0.018629         2.539673        -1.641310
 H         0.222287         1.766566         0.696279
 H         1.320476        -0.306863         1.578527
