19
Iteration:  4563charge 0 multiplicity 1
 C        -2.144658        -1.666203        -0.992868
 C        -1.369724        -0.435131        -1.088362
 C        -1.905427         0.839099        -1.624728
 C        -0.598367         0.077273        -2.267451
 C         0.799454         0.473076        -1.675891
 C         0.331599         0.711631        -0.210103
 O        -0.604597        -0.328332         0.078138
 C         1.552730         0.449532         0.642752
 O         2.444946         1.320345         0.721858
 H        -3.117955        -1.631573        -0.663342
 H        -2.258582        -2.127050        -1.942612
 H        -1.723034        -2.406175        -0.226398
 H        -2.736595         0.663395        -2.284090
 H        -2.006085         1.812988        -1.183349
 H        -0.861170        -0.371548        -3.166274
 H         1.550080        -0.288193        -1.632010
 H         1.214806         1.429101        -2.132838
 H         0.031866         1.804207         0.070278
 H         1.486846        -0.649114         1.162386
