19
Iteration:  1641charge 0 multiplicity 1
 C        -1.525565        -1.871554        -0.744262
 C        -1.207590        -0.377823        -0.895408
 C        -2.112891         0.377321        -1.935022
 C        -0.528307         0.250056        -2.055891
 C         0.226945         1.451178        -1.494045
 C         0.316862         1.069900        -0.018850
 O        -0.835339         0.284977         0.249536
 C         1.518634         0.189665         0.440551
 O         2.615488         0.144607         0.117614
 H        -2.140109        -2.015684         0.253209
 H        -2.025679        -2.147679        -1.695740
 H        -0.684791        -2.530425        -0.727948
 H        -2.709285        -0.138774        -2.700765
 H        -2.588417         1.327241        -1.574646
 H        -0.120516        -0.139184        -3.028863
 H         1.218091         1.583358        -1.821441
 H        -0.187726         2.389124        -1.750830
 H         0.271179         1.816528         0.691450
 H         1.235103        -0.600757         1.106463
