19
Iteration:  1062charge 0 multiplicity 1
 C        -1.467977        -1.900938        -0.782523
 C        -1.414122        -0.429292        -0.998714
 C        -2.154999         0.556374        -1.808773
 C        -0.665414         0.240791        -2.053236
 C         0.553293         1.103960        -1.547012
 C         0.311632         1.002827         0.039540
 O        -0.962382         0.318018         0.247248
 C         1.494205         0.124438         0.443370
 O         2.699675         0.442478         0.139308
 H        -2.434112        -2.227573        -0.168929
 H        -1.621944        -2.461905        -1.725460
 H        -0.473357        -2.166403        -0.352567
 H        -2.790579         0.314095        -2.635322
 H        -2.360437         1.528235        -1.378536
 H        -0.526098        -0.213495        -3.028812
 H         1.455292         0.852822        -1.964979
 H         0.463759         2.187698        -1.761784
 H         0.262949         1.917127         0.542079
 H         1.347649        -0.785321         0.969831
