19
Iteration:  3712
 C        -2.059025        -1.847054        -1.068098
 C        -1.490037        -0.369689        -1.067886
 C        -1.930362         0.809092        -1.808236
 C        -0.641463         0.208661        -2.258090
 C         0.684304         0.475678        -1.579969
 C         0.402075         0.714055        -0.126893
 O        -0.743440        -0.173473         0.156602
 C         1.693366         0.407273         0.590476
 O         2.530274         1.276632         0.730574
 H        -3.119788        -1.832573        -0.774650
 H        -1.818096        -2.470101        -1.827638
 H        -1.597429        -2.315471        -0.132338
 H        -2.694038         0.557768        -2.578230
 H        -2.030752         1.717832        -1.203257
 H        -0.556653        -0.435620        -3.093539
 H         1.156948        -0.461887        -1.704237
 H         1.347814         1.220078        -1.962136
 H         0.035379         1.726572         0.131242
 H         1.786663        -0.623989         0.978642
