19
Iteration:  4845charge 0 multiplicity 1
 C        -1.846698        -1.861915        -0.892691
 C        -1.332404        -0.491892        -1.052174
 C        -1.851578         0.451153        -2.083002
 C        -0.400766        -0.072317        -2.152456
 C         0.638364         0.965200        -1.552477
 C         0.249837         0.925721        -0.120128
 O        -0.960226         0.338755         0.107437
 C         1.409638         0.427891         0.762459
 O         2.551351         0.695294         0.591748
 H        -2.932076        -1.726042        -0.466448
 H        -1.721696        -2.278939        -1.836313
 H        -1.056176        -2.374412        -0.263747
 H        -2.512381        -0.030107        -2.781709
 H        -2.091486         1.507076        -1.887887
 H        -0.011324        -0.715651        -3.026959
 H         1.630869         0.483161        -1.653719
 H         0.523005         1.944902        -2.066987
 H         0.263794         2.033567         0.280164
 H         1.051093        -0.018377         1.801947
