19
Iteration:  3220
 C        -1.623373        -1.863138        -0.682819
 C        -1.284156        -0.425545        -1.001270
 C        -2.091482         0.387258        -1.996328
 C        -0.482073         0.295766        -2.181307
 C         0.272489         1.398725        -1.495225
 C         0.275524         0.958549         0.075459
 O        -0.923553         0.239739         0.200992
 C         1.594141         0.206252         0.538338
 O         2.692612         0.267698         0.158731
 H        -0.929446        -2.502144        -0.173667
 H        -2.440876        -1.936642        -0.084667
 H        -1.812672        -2.319908        -1.638599
 H        -2.731138        -0.032185        -2.770898
 H        -2.425075         1.343531        -1.681371
 H        -0.017877        -0.171242        -3.053013
 H         1.357020         1.311592        -1.738828
 H        -0.025516         2.482569        -1.639434
 H         0.434851         2.003201         0.611796
 H         1.356562        -0.311289         1.516794
