19
Iteration:  4726charge 0 multiplicity 1
 C        -1.919389        -1.875064        -1.006428
 C        -1.364323        -0.415411        -1.038143
 C        -1.938841         0.528195        -2.027124
 C        -0.581762         0.020964        -2.176342
 C         0.606155         0.710041        -1.639562
 C         0.364863         1.042784        -0.106164
 O        -0.799184         0.123883         0.200323
 C         1.459470         0.540317         0.748263
 O         2.633254         0.807120         0.680207
 H        -1.339137        -2.415647        -1.881505
 H        -1.895471        -2.298944        -0.035680
 H        -3.026473        -1.866220        -1.383037
 H        -2.685462         0.138525        -2.705868
 H        -1.969429         1.571226        -1.715117
 H        -0.375351        -0.819483        -2.864818
 H         1.520092         0.142864        -1.779622
 H         0.760215         1.745439        -2.117891
 H         0.013674         2.037809         0.076848
 H         1.147068        -0.253092         1.473855
