19
Iteration:  2518charge 0 multiplicity 1
 C        -1.658892        -1.866569        -0.790912
 C        -1.366356        -0.380024        -1.009540
 C        -2.090188         0.629892        -1.868282
 C        -0.592765         0.221532        -2.098983
 C         0.374760         1.143727        -1.519562
 C         0.281480         0.937073        -0.013946
 O        -0.863964         0.080312         0.258477
 C         1.621495         0.254780         0.543239
 O         2.696422         0.462499         0.119664
 H        -2.228270        -1.976823         0.134257
 H        -2.097586        -2.337219        -1.569215
 H        -0.718580        -2.196432        -0.582109
 H        -2.650241         0.145492        -2.658659
 H        -2.303569         1.614911        -1.519346
 H        -0.485488        -0.256506        -3.062867
 H         1.344786         0.717753        -1.809425
 H         0.312414         2.255946        -1.733860
 H         0.231926         1.908911         0.554577
 H         1.444837        -0.362042         1.479163
