19
Iteration:  4886
 C        -1.745844        -1.784661        -0.716015
 C        -1.348108        -0.380026        -1.083105
 C        -1.854938         0.431720        -2.317901
 C        -0.361862         0.034454        -2.221767
 C         0.542637         0.986890        -1.545866
 C         0.227693         1.026346        -0.105482
 O        -0.890044         0.160930         0.138220
 C         1.365519         0.400279         0.786365
 O         2.542501         0.603012         0.622445
 H        -2.025212        -1.725310         0.369015
 H        -2.669382        -2.317909        -1.051155
 H        -1.058969        -2.572834        -0.943392
 H        -2.530044        -0.130716        -2.910585
 H        -2.134203         1.476841        -2.305407
 H        -0.059262        -0.612300        -3.051204
 H         1.650883         0.633229        -1.601364
 H         0.568260         1.958944        -2.019647
 H         0.043404         1.960372         0.308333
 H         0.876652         0.019561         1.677987
