19
Iteration:  4846charge 0 multiplicity 1
 C        -1.840570        -1.865286        -0.889405
 C        -1.336696        -0.483113        -1.057824
 C        -1.848269         0.452437        -2.090978
 C        -0.406469        -0.072433        -2.148186
 C         0.636037         0.959649        -1.548513
 C         0.255040         0.930912        -0.126547
 O        -0.962676         0.331512         0.104833
 C         1.407113         0.423562         0.764810
 O         2.554216         0.694794         0.592435
 H        -2.891734        -1.716764        -0.433968
 H        -1.774757        -2.267379        -1.847978
 H        -1.043704        -2.365631        -0.233472
 H        -2.528327        -0.036159        -2.795109
 H        -2.074340         1.519623        -1.874436
 H         0.003812        -0.712249        -3.029440
 H         1.620406         0.513859        -1.625224
 H         0.496424         1.948707        -2.061373
 H         0.248324         2.050726         0.287081
 H         1.083382        -0.009136         1.816282
