19
Iteration:  3440charge 0 multiplicity 1
 C        -1.749714        -1.793024        -0.878935
 C        -1.393411        -0.423365        -1.037836
 C        -2.097540         0.541138        -2.002729
 C        -0.599310         0.165554        -2.160503
 C         0.525765         1.050271        -1.588257
 C         0.350956         0.802656        -0.039914
 O        -0.890582         0.105723         0.238238
 C         1.562972         0.321848         0.690038
 O         2.737267         0.646433         0.367037
 H        -2.493438        -1.788133        -0.148735
 H        -2.231501        -2.196579        -1.718350
 H        -0.965483        -2.518323        -0.574956
 H        -2.862695         0.126503        -2.707226
 H        -2.406230         1.440560        -1.440999
 H        -0.237628        -0.312824        -3.116636
 H         1.593408         0.916333        -1.961418
 H         0.184533         2.092689        -1.912313
 H         0.228612         1.762545         0.590310
 H         1.455137        -0.050895         1.717416
