19
Iteration:   597
 C        -1.513340        -1.864334        -0.851081
 C        -1.271865        -0.353464        -0.888976
 C        -2.149229         0.433197        -1.787821
 C        -0.605056         0.275804        -2.181626
 C         0.277226         1.304279        -1.597304
 C         0.327552         1.060723        -0.019978
 O        -0.809665         0.315085         0.321339
 C         1.539565         0.251281         0.520991
 O         2.634941         0.097847         0.146718
 H        -2.400745        -2.023272        -0.295226
 H        -1.665125        -2.205867        -1.789087
 H        -0.663189        -2.398533        -0.497271
 H        -2.759443        -0.240644        -2.341212
 H        -2.583873         1.390877        -1.609148
 H        -0.285585        -0.209287        -3.115067
 H         1.373954         1.247181        -1.960902
 H        -0.010846         2.308302        -2.073440
 H         0.368994         2.027338         0.559709
 H         1.169241        -0.311385         1.496586
