19
Iteration:  4037charge 0 multiplicity 1
 C        -1.944572        -1.827803        -0.850362
 C        -1.459161        -0.409271        -1.036965
 C        -1.976957         0.830012        -1.883871
 C        -0.701306         0.086162        -2.251457
 C         0.686543         0.586842        -1.647317
 C         0.386948         0.889090        -0.166875
 O        -0.654033        -0.085899         0.069475
 C         1.529355         0.391039         0.712934
 O         2.534480         1.020452         0.710232
 H        -1.750623        -2.257606        -1.924343
 H        -1.289330        -2.282469        -0.176016
 H        -3.021704        -2.055408        -0.537250
 H        -2.708375         0.740881        -2.746659
 H        -1.845933         1.805144        -1.299457
 H        -0.677554        -0.502986        -3.209218
 H         1.385100        -0.296331        -1.768254
 H         0.949768         1.460145        -2.235316
 H         0.185867         1.990658        -0.092172
 H         1.441398        -0.607312         1.207408
