19
Iteration:  4344
 C        -1.966043        -1.751558        -0.692653
 C        -1.241038        -0.437461        -1.019322
 C        -1.995087         0.621025        -1.859129
 C        -0.650245         0.014071        -2.295450
 C         0.532042         0.865841        -1.875145
 C         0.480570         0.928204        -0.274372
 O        -0.601729         0.050142         0.123084
 C         1.576259         0.257426         0.405517
 O         2.347988         0.880886         1.064771
 H        -2.014452        -2.464757        -1.560044
 H        -1.444916        -2.105966         0.168157
 H        -3.072693        -1.524954        -0.444209
 H        -2.843453         0.127617        -2.338125
 H        -1.975841         1.675642        -1.611328
 H        -0.637698        -0.501692        -3.359220
 H         1.448314         0.417099        -2.184677
 H         0.600950         1.870066        -2.380519
 H         0.506177         1.953243         0.128634
 H         1.663036        -0.817431         0.120216
