19
Iteration:  3144
 C        -1.375482        -1.887487        -0.724024
 C        -1.325321        -0.413720        -0.919331
 C        -2.057994         0.426525        -1.973911
 C        -0.557361         0.297098        -2.096917
 C         0.418987         1.341654        -1.396976
 C         0.284967         0.968590         0.073778
 O        -0.987594         0.419761         0.237492
 C         1.500749         0.079244         0.507894
 O         2.512377         0.251278        -0.060755
 H        -1.964711        -2.036991         0.204549
 H        -1.835446        -2.596040        -1.435359
 H        -0.342214        -2.289901        -0.485994
 H        -2.726046         0.086703        -2.746326
 H        -2.400591         1.340809        -1.515178
 H        -0.128145        -0.083178        -3.058849
 H         1.384094         0.934967        -1.683962
 H         0.280311         2.358629        -1.713760
 H         0.318000         1.889898         0.748403
 H         1.347459        -0.595007         1.393129
