19
Iteration:  3646
 C        -2.075382        -1.824060        -0.963721
 C        -1.367690        -0.478290        -1.048449
 C        -1.969033         0.682137        -1.844892
 C        -0.633007         0.201018        -2.271368
 C         0.620047         0.794876        -1.784104
 C         0.314241         0.813642        -0.215439
 O        -0.636687        -0.267526         0.138593
 C         1.511720         0.663940         0.830373
 O         2.725143         0.885391         0.710077
 H        -3.011288        -1.729556        -1.631916
 H        -1.462484        -2.749337        -1.073378
 H        -2.536106        -1.720086         0.114561
 H        -2.696099         0.222201        -2.535556
 H        -2.187675         1.682479        -1.362275
 H        -0.574079        -0.504278        -3.108518
 H         1.565672         0.391900        -1.895278
 H         0.718776         1.793001        -2.145448
 H        -0.117379         1.905576         0.078373
 H         1.096854         0.069169         1.753140
