19
Iteration:  3205
 C        -1.634827        -1.856164        -0.764857
 C        -1.253712        -0.420582        -0.963649
 C        -2.008709         0.403413        -1.984852
 C        -0.531027         0.232266        -2.117747
 C         0.307523         1.390266        -1.446565
 C         0.315350         1.051057        -0.007950
 O        -0.874757         0.241626         0.240871
 C         1.531243         0.213459         0.538921
 O         2.664188         0.235610         0.131490
 H        -0.945846        -2.061628         0.123296
 H        -2.800391        -1.852869        -0.449541
 H        -1.380443        -2.508096        -1.589933
 H        -2.621753        -0.290275        -2.593124
 H        -2.485038         1.372835        -1.626121
 H        -0.157039        -0.318173        -3.032050
 H         1.226560         1.722665        -1.976268
 H        -0.360034         2.298137        -1.597392
 H         0.071958         1.847956         0.660213
 H         1.122668        -0.529165         1.270668
