19
Iteration:   559
 C        -1.485579        -1.923919        -0.646388
 C        -1.326490        -0.362120        -1.053027
 C        -2.080535         0.611803        -1.887909
 C        -0.600661         0.282165        -2.175821
 C         0.358858         1.230703        -1.528065
 C         0.293293         1.020640         0.075560
 O        -0.934976         0.207623         0.243363
 C         1.584938         0.270875         0.586500
 O         2.616404         0.173722        -0.006394
 H        -2.145597        -2.244598         0.228708
 H        -1.681502        -2.512423        -1.662632
 H        -0.457254        -2.257871        -0.306605
 H        -2.871432         0.184815        -2.560496
 H        -2.400974         1.640760        -1.526448
 H        -0.387101        -0.095186        -3.181263
 H         1.372620         1.028981        -1.804224
 H         0.117448         2.248917        -1.687683
 H         0.146797         1.871930         0.751251
 H         1.477750        -0.049239         1.687568
