19
Iteration:  3845charge 0 multiplicity 1
 C        -2.111944        -1.709624        -0.982556
 C        -1.379953        -0.448083        -1.026839
 C        -1.880313         0.832296        -1.709539
 C        -0.697128         0.023099        -2.292633
 C         0.738416         0.338176        -1.845271
 C         0.470087         0.719166        -0.313022
 O        -0.589590        -0.071849         0.126000
 C         1.698270         0.431529         0.503588
 O         2.257152         1.322054         1.102709
 H        -2.179969        -2.180241        -0.011210
 H        -3.216393        -1.517892        -1.238288
 H        -1.733406        -2.507093        -1.786074
 H        -2.814594         0.750140        -2.217108
 H        -1.752568         1.739397        -1.112312
 H        -0.782015        -0.749964        -3.111050
 H         1.451728        -0.613790        -2.006734
 H         1.083996         1.238886        -2.454804
 H         0.212169         1.784115        -0.063399
 H         2.006402        -0.675324         0.555333
