19
Iteration:  2920
 C        -1.405481        -1.904272        -0.639492
 C        -1.305695        -0.469037        -0.964879
 C        -2.018317         0.503429        -2.010683
 C        -0.567941         0.341425        -2.120353
 C         0.347674         1.394378        -1.522826
 C         0.271251         0.990766         0.020666
 O        -0.985149         0.333774         0.249865
 C         1.518830         0.145575         0.593546
 O         2.557540         0.155533        -0.003188
 H        -1.656693        -1.960644         0.389595
 H        -2.116251        -2.482689        -1.023739
 H        -0.397552        -2.312586        -0.781583
 H        -2.535418        -0.053119        -2.799139
 H        -2.448538         1.442068        -1.606598
 H        -0.137318        -0.192463        -2.960513
 H         1.420120         1.355564        -1.884700
 H         0.147074         2.513686        -1.532437
 H         0.182576         1.795386         0.655120
 H         1.293649        -0.478973         1.505269
