19
Iteration:  4760charge 0 multiplicity 1
 C        -1.889567        -1.807009        -0.768338
 C        -1.355115        -0.489686        -1.086359
 C        -1.912763         0.500843        -2.025364
 C        -0.496137         0.095655        -2.268576
 C         0.666824         0.867188        -1.635360
 C         0.347962         0.941521        -0.150766
 O        -0.821937         0.114857         0.050296
 C         1.378667         0.488685         0.796540
 O         2.588126         0.740527         0.682694
 H        -2.034004        -2.468327        -1.699815
 H        -1.249791        -2.513935        -0.216906
 H        -2.965396        -1.759030        -0.326129
 H        -2.708859         0.249739        -2.741460
 H        -2.060868         1.508754        -1.526270
 H        -0.207857        -0.675411        -3.091414
 H         1.590497         0.476718        -2.003755
 H         0.522598         1.962811        -1.983390
 H         0.071855         1.948440         0.102474
 H         0.914220        -0.087571         1.617469
