19
Iteration:  1904
 C        -1.550250        -1.890564        -0.724595
 C        -1.317954        -0.418375        -1.027046
 C        -2.123770         0.367920        -1.997833
 C        -0.613687         0.321507        -2.105423
 C         0.230927         1.399753        -1.466624
 C         0.370348         0.998525         0.005781
 O        -0.893282         0.280759         0.274766
 C         1.585201         0.198789         0.568953
 O         2.747618         0.198808         0.087613
 H        -2.618827        -1.980745        -0.227822
 H        -1.678908        -2.603151        -1.525291
 H        -0.921652        -2.062556         0.048188
 H        -2.602119        -0.186684        -2.755091
 H        -2.349877         1.406095        -1.793357
 H        -0.172587        -0.144287        -3.009164
 H         1.176799         1.602291        -1.925308
 H        -0.231451         2.463601        -1.558051
 H         0.525055         1.964704         0.573503
 H         1.242112        -0.383992         1.521630
