19
Iteration:   197charge 0 multiplicity 1
 C        -1.656057        -1.909769        -0.957784
 C        -1.314048        -0.423689        -0.900720
 C        -2.108372         0.491294        -1.785055
 C        -0.619336         0.297515        -2.072162
 C         0.413784         1.210507        -1.543559
 C         0.374197         1.089713        -0.039766
 O        -0.941330         0.189465         0.295216
 C         1.630316         0.363618         0.604272
 O         2.686662         0.216432         0.077746
 H        -2.133847        -2.123188        -0.071597
 H        -2.233717        -2.193881        -1.784919
 H        -0.800104        -2.493648        -0.979811
 H        -2.692151        -0.024123        -2.549902
 H        -2.494740         1.411043        -1.486563
 H        -0.403714        -0.338109        -2.953259
 H         1.495829         0.978646        -1.866966
 H         0.142289         2.275634        -1.831473
 H         0.081019         2.054529         0.399530
 H         1.473644         0.010055         1.686434
