19
Iteration:   384
 C        -1.439096        -1.805765        -0.751115
 C        -1.356380        -0.352668        -0.921903
 C        -2.110145         0.423120        -1.925651
 C        -0.609441         0.221878        -2.105986
 C         0.292603         1.338919        -1.451715
 C         0.311860         1.009516         0.006178
 O        -0.946538         0.370426         0.271038
 C         1.555103         0.104758         0.400645
 O         2.720775         0.178532         0.121521
 H        -2.106442        -1.923598         0.111425
 H        -1.872708        -2.320209        -1.674376
 H        -0.439593        -2.184094        -0.651695
 H        -2.704664        -0.281977        -2.537554
 H        -2.573681         1.428884        -1.692064
 H        -0.301537        -0.257088        -3.015862
 H         1.445965         1.244062        -1.824276
 H         0.003481         2.393743        -1.713630
 H         0.334053         1.912427         0.661588
 H         1.096165        -0.587946         1.239529
