19
Iteration:  4806charge 0 multiplicity 1
 C        -1.863486        -1.862267        -0.870484
 C        -1.331691        -0.410487        -1.091171
 C        -1.938237         0.471472        -2.139345
 C        -0.452314        -0.021954        -2.145162
 C         0.596829         0.896984        -1.600493
 C         0.268356         1.035907        -0.087677
 O        -0.858419         0.219697         0.141668
 C         1.427795         0.496278         0.732410
 O         2.600156         0.668289         0.664108
 H        -2.799861        -2.198608        -1.208962
 H        -1.140858        -2.582502        -1.485574
 H        -1.860575        -2.039760         0.215927
 H        -2.538945        -0.063032        -2.915473
 H        -2.090720         1.559699        -1.960806
 H        -0.173719        -0.725468        -2.962223
 H         1.558837         0.379923        -1.580555
 H         0.708804         1.914069        -2.078348
 H        -0.006462         1.997276         0.259008
 H         0.992709        -0.221032         1.451483
