19
Iteration:  2443charge 0 multiplicity 1
 C        -1.632265        -1.871345        -0.889213
 C        -1.339205        -0.428139        -0.990583
 C        -2.196392         0.479462        -1.769402
 C        -0.732761         0.268618        -2.149957
 C         0.337870         1.220134        -1.642227
 C         0.368432         0.980365        -0.112021
 O        -0.728224         0.195909         0.229334
 C         1.608759         0.315597         0.641164
 O         2.734914         0.310311         0.278156
 H        -2.688451        -1.904428        -0.279100
 H        -1.622043        -2.320958        -1.853232
 H        -0.812915        -2.219638        -0.198839
 H        -2.838148        -0.065940        -2.452973
 H        -2.472600         1.471020        -1.510812
 H        -0.614651        -0.209922        -3.117500
 H         1.346224         0.996458        -1.971410
 H         0.051842         2.242593        -1.867228
 H         0.319897         1.856462         0.621621
 H         1.263571        -0.040171         1.646875
