19
Iteration:  4277
 C        -1.955283        -1.756670        -0.759504
 C        -1.413405        -0.369589        -0.979711
 C        -1.985431         0.593407        -1.986562
 C        -0.627160        -0.035134        -2.188780
 C         0.562663         0.855575        -1.779856
 C         0.459282         0.865057        -0.192535
 O        -0.745093         0.097307         0.183587
 C         1.666901         0.256831         0.320820
 O         2.460091         0.914600         1.022398
 H        -2.003496        -2.229848        -1.810408
 H        -1.260473        -2.252709        -0.095984
 H        -2.993460        -1.733819        -0.483023
 H        -2.812303         0.261993        -2.648090
 H        -2.085080         1.672688        -1.845824
 H        -0.383108        -0.650927        -3.074079
 H         1.432746         0.279486        -2.074494
 H         0.709014         1.804444        -2.255335
 H         0.321938         1.865073         0.129765
 H         2.144122        -0.621869        -0.120783
