19
Iteration:  3161
 C        -1.407984        -1.875415        -0.755013
 C        -1.256425        -0.383054        -0.920808
 C        -2.035335         0.457265        -1.925048
 C        -0.502250         0.255733        -2.018403
 C         0.405616         1.270742        -1.471674
 C         0.248182         1.051040         0.088262
 O        -1.045049         0.343501         0.262106
 C         1.481454         0.170450         0.431393
 O         2.581381         0.228426        -0.021432
 H        -1.726366        -2.099667         0.278834
 H        -2.244030        -2.045545        -1.554084
 H        -0.602857        -2.528177        -1.079536
 H        -2.577994        -0.149731        -2.686184
 H        -2.441136         1.461662        -1.580362
 H        -0.222319        -0.541990        -2.717552
 H         1.488529         1.226374        -1.708351
 H         0.007199         2.338471        -1.615021
 H         0.285117         1.967464         0.698700
 H         1.250454        -0.652705         1.153444
