19
Iteration:   281charge 0 multiplicity 1
 C        -1.548183        -1.848912        -0.870394
 C        -1.342038        -0.367268        -0.896562
 C        -2.129577         0.383624        -1.941542
 C        -0.592441         0.250654        -2.031529
 C         0.420952         1.294440        -1.507436
 C         0.347115         0.944593         0.067543
 O        -0.948581         0.379699         0.295996
 C         1.577081         0.140745         0.555770
 O         2.667761         0.301030        -0.016195
 H        -2.548525        -2.052872        -0.192875
 H        -1.716913        -2.113893        -1.922224
 H        -0.807167        -2.465456        -0.168253
 H        -2.737210        -0.112651        -2.686664
 H        -2.535690         1.281657        -1.512828
 H        -0.271168        -0.262501        -2.954266
 H         1.409195         1.024588        -1.799127
 H         0.120756         2.327792        -1.808145
 H         0.339594         1.849999         0.730654
 H         1.448684        -0.453418         1.512417
