19
Iteration:  1289charge 0 multiplicity 1
 C        -1.598733        -1.890433        -0.757674
 C        -1.369379        -0.395334        -1.022877
 C        -2.203655         0.525103        -1.883314
 C        -0.643688         0.308954        -2.141704
 C         0.415501         1.231508        -1.546497
 C         0.368939         0.856692        -0.032629
 O        -0.872630         0.253220         0.239097
 C         1.554717         0.185746         0.567470
 O         2.762404         0.426333         0.200231
 H        -2.337528        -2.059218         0.049265
 H        -1.955611        -2.419827        -1.648043
 H        -0.702777        -2.442734        -0.579810
 H        -2.816836        -0.012844        -2.605576
 H        -2.693439         1.412412        -1.487936
 H        -0.435687        -0.348998        -3.009559
 H         1.374351         0.822968        -2.098841
 H         0.143516         2.328806        -1.832800
 H         0.416253         1.707586         0.612194
 H         1.494332        -0.236536         1.568273
