19
Iteration:  3556charge 0 multiplicity 1
 C        -1.815676        -1.862952        -1.070621
 C        -1.389738        -0.448911        -1.031457
 C        -2.069723         0.614098        -1.867239
 C        -0.568393         0.166081        -2.190022
 C         0.611913         0.836358        -1.586153
 C         0.349534         0.944925        -0.016486
 O        -0.821467         0.007850         0.256856
 C         1.501908         0.621925         0.857058
 O         2.643897         0.649324         0.319848
 H        -0.985475        -2.625338        -1.405648
 H        -2.168181        -2.320069        -0.136170
 H        -2.680055        -1.988010        -1.795975
 H        -2.854300         0.431798        -2.593943
 H        -2.124562         1.576820        -1.437143
 H        -0.526411        -0.433722        -3.108363
 H         1.422512         0.122987        -1.650613
 H         0.915233         1.608250        -2.269071
 H         0.008932         1.887283         0.350022
 H         1.402441         0.259538         1.878410
