19
Iteration:  3083charge 0 multiplicity 1
 C        -1.364780        -1.939335        -0.812594
 C        -1.207840        -0.368022        -0.795998
 C        -2.104958         0.333465        -1.878261
 C        -0.565554         0.262949        -2.022464
 C         0.248312         1.498450        -1.576392
 C         0.368856         1.098063        -0.073622
 O        -0.885291         0.434603         0.286173
 C         1.443863         0.188838         0.484725
 O         2.559068        -0.017007         0.085466
 H        -2.401328        -2.044731        -1.056126
 H        -0.903648        -2.384681        -1.761835
 H        -1.092890        -2.395430         0.138110
 H        -2.662995        -0.189145        -2.683561
 H        -2.454223         1.302079        -1.563890
 H        -0.317202        -0.070853        -2.987562
 H         1.239965         1.742678        -2.025283
 H        -0.296402         2.493112        -1.514590
 H         0.310477         1.995231         0.599084
 H         0.987764        -0.543400         1.197799
