19
Iteration:  2324charge 0 multiplicity 1
 C        -1.646136        -1.903527        -0.779302
 C        -1.327874        -0.371260        -0.944755
 C        -2.090560         0.534616        -1.961773
 C        -0.604479         0.220477        -2.119481
 C         0.362740         1.288022        -1.503770
 C         0.291798         0.905019        -0.007723
 O        -0.902673         0.184970         0.287428
 C         1.639652         0.229376         0.558023
 O         2.709034         0.371632         0.108654
 H        -2.436897        -2.093208         0.022348
 H        -1.911460        -2.217991        -1.773879
 H        -0.611812        -2.342918        -0.494622
 H        -2.788936        -0.012780        -2.549617
 H        -2.422351         1.510285        -1.609168
 H        -0.462272        -0.345137        -3.071349
 H         1.411956         1.247325        -1.837938
 H         0.044704         2.275896        -1.800256
 H         0.363288         1.991426         0.547710
 H         1.415650        -0.268731         1.523965
