19
Iteration:  3697charge 0 multiplicity 1
 C        -2.000917        -1.797629        -1.006934
 C        -1.388035        -0.450692        -1.028510
 C        -1.979798         0.820771        -1.787673
 C        -0.623231         0.174071        -2.219035
 C         0.753218         0.488892        -1.694968
 C         0.319039         0.678831        -0.178717
 O        -0.755908        -0.130249         0.237941
 C         1.585049         0.453999         0.664471
 O         2.529275         1.182213         0.686276
 H        -3.076882        -1.883077        -1.295452
 H        -1.528283        -2.164888        -1.986422
 H        -1.691943        -2.366559        -0.185689
 H        -2.823725         0.654838        -2.427418
 H        -1.993074         1.854807        -1.396782
 H        -0.770851        -0.126256        -3.295227
 H         1.615769        -0.339389        -1.866975
 H         1.183206         1.474757        -2.037357
 H         0.129827         1.710049        -0.156645
 H         1.602711        -0.564267         1.091580
