19
Iteration:  3390
 C        -1.774491        -1.847008        -0.925654
 C        -1.309950        -0.435757        -0.981284
 C        -1.991155         0.553812        -1.862878
 C        -0.508071         0.135127        -2.109276
 C         0.565211         1.103463        -1.535152
 C         0.302961         0.934856        -0.017612
 O        -0.891473         0.126355         0.305561
 C         1.483631         0.301544         0.527188
 O         2.582270         0.614847         0.253172
 H        -2.855828        -2.047558        -1.235727
 H        -1.200519        -2.699795        -1.527902
 H        -1.715647        -2.245113         0.074628
 H        -2.749103         0.213254        -2.591622
 H        -2.063234         1.612883        -1.532841
 H        -0.237493        -0.664061        -2.810084
 H         1.597541         0.879526        -1.809006
 H         0.430344         2.071988        -1.939696
 H         0.204656         2.090966         0.234157
 H         1.321605        -0.531060         1.251877
