19
Iteration:  3074
 C        -1.368705        -1.871085        -0.832627
 C        -1.198361        -0.425701        -0.902044
 C        -2.047536         0.316716        -1.835163
 C        -0.579808         0.305929        -1.994989
 C         0.222022         1.491379        -1.528842
 C         0.377252         1.113546        -0.068752
 O        -0.865574         0.444945         0.273003
 C         1.393215         0.124396         0.483801
 O         2.551846         0.009236         0.065476
 H        -2.443593        -2.028296        -1.032062
 H        -0.820447        -2.326701        -1.560552
 H        -1.179576        -2.411893         0.028565
 H        -2.689657        -0.285396        -2.556860
 H        -2.541857         1.250014        -1.501372
 H        -0.303455        -0.394118        -2.805579
 H         1.193095         1.462343        -2.076743
 H        -0.338047         2.484752        -1.670710
 H         0.563056         2.077178         0.623413
 H         1.007820        -0.274639         1.468197
