19
Iteration:  4158charge 0 multiplicity 1
 C        -2.051882        -1.881028        -0.997965
 C        -1.348727        -0.500349        -1.059650
 C        -1.811579         0.753997        -1.834285
 C        -0.482613         0.059096        -2.114409
 C         0.700220         0.676221        -1.592699
 C         0.191335         0.928746        -0.203386
 O        -0.764987        -0.057606         0.188715
 C         1.449061         0.656125         0.770957
 O         2.605522         0.818008         0.447705
 H        -2.856975        -1.870123        -1.718132
 H        -1.360583        -2.633651        -1.174032
 H        -2.569599        -2.052336        -0.086014
 H        -2.516685         0.517215        -2.637521
 H        -2.015369         1.673379        -1.283789
 H        -0.536680        -0.515998        -3.006415
 H         1.578602         0.032325        -1.569149
 H         1.110243         1.574205        -2.013845
 H        -0.255655         1.956072         0.085184
 H         1.235756         0.329496         1.794918
