19
Iteration:  4804charge 0 multiplicity 1
 C        -1.858514        -1.867726        -0.858830
 C        -1.337617        -0.389594        -1.093691
 C        -1.932002         0.467177        -2.141976
 C        -0.456153        -0.006716        -2.158028
 C         0.595708         0.882813        -1.613466
 C         0.273122         1.016347        -0.081107
 O        -0.857833         0.205747         0.136695
 C         1.418842         0.511828         0.725823
 O         2.602906         0.663898         0.671178
 H        -2.861500        -2.211412        -1.242319
 H        -1.103669        -2.498840        -1.410146
 H        -1.854992        -2.004446         0.286048
 H        -2.533625        -0.043003        -2.919096
 H        -2.038453         1.567034        -1.929902
 H        -0.137211        -0.754418        -2.998903
 H         1.533578         0.404671        -1.561603
 H         0.652959         1.944553        -2.047970
 H        -0.072422         2.021388         0.309968
 H         1.057676        -0.211483         1.445745
