19
Iteration:   877
 C        -1.535309        -1.853495        -0.729958
 C        -1.277754        -0.391935        -0.980503
 C        -2.244002         0.365184        -1.943134
 C        -0.634519         0.426839        -2.123649
 C         0.391789         1.300537        -1.508201
 C         0.259572         1.035239        -0.010500
 O        -0.875175         0.241883         0.169887
 C         1.621122         0.286096         0.607847
 O         2.754075         0.104769         0.128484
 H        -2.393498        -1.938741        -0.055402
 H        -1.916327        -2.223738        -1.617534
 H        -0.760692        -2.457701        -0.391243
 H        -2.753635        -0.314617        -2.581130
 H        -2.852653         1.096062        -1.525012
 H        -0.394471        -0.111808        -3.078449
 H         1.428085         1.324465        -1.746589
 H         0.270926         2.496536        -1.689289
 H        -0.024785         1.995429         0.643268
 H         1.374650         0.044287         1.707314
