19
Iteration:  2171charge 0 multiplicity 1
 C        -1.580463        -1.895740        -0.727120
 C        -1.168444        -0.418372        -0.905544
 C        -2.062299         0.446382        -1.818136
 C        -0.557200         0.274376        -2.170560
 C         0.308035         1.433501        -1.601615
 C         0.315218         1.039705        -0.056591
 O        -0.847702         0.215107         0.269564
 C         1.441543         0.162615         0.425257
 O         2.621624         0.260519         0.201097
 H        -2.077795        -1.963691         0.198202
 H        -2.243849        -2.038159        -1.548103
 H        -0.673742        -2.603701        -0.841069
 H        -2.763407         0.022672        -2.558958
 H        -2.334576         1.455467        -1.542132
 H        -0.103470        -0.435926        -2.909906
 H         1.369034         1.417727        -2.064412
 H        -0.308706         2.402104        -1.415748
 H         0.316243         1.857949         0.635002
 H         1.088033        -0.750114         0.958818
