19
Iteration:  3835charge 0 multiplicity 1
 C        -2.150667        -1.695107        -0.906768
 C        -1.386478        -0.401990        -1.092977
 C        -1.921058         0.782991        -1.676707
 C        -0.669744        -0.012522        -2.285190
 C         0.708018         0.414498        -1.821722
 C         0.519750         0.752170        -0.334070
 O        -0.612272        -0.155054         0.028564
 C         1.730118         0.360160         0.585147
 O         2.249110         1.351682         1.077599
 H        -2.051571        -2.077646         0.080652
 H        -3.250186        -1.392264        -1.143836
 H        -1.749716        -2.457739        -1.697887
 H        -2.758372         0.677094        -2.295628
 H        -1.855418         1.749985        -1.225407
 H        -0.855097        -0.416653        -3.319364
 H         1.430884        -0.474341        -1.697014
 H         1.372018         1.145689        -2.377963
 H         0.357772         1.876354        -0.071114
 H         2.212039        -0.674345         0.650556
