19
Iteration:  4034charge 0 multiplicity 1
 C        -1.955696        -1.828003        -0.874409
 C        -1.477717        -0.402458        -1.064402
 C        -1.976268         0.836846        -1.873955
 C        -0.691395         0.086556        -2.244014
 C         0.684570         0.569217        -1.641888
 C         0.379747         0.878664        -0.190005
 O        -0.669354        -0.069377         0.078568
 C         1.525948         0.378011         0.706642
 O         2.544671         1.037291         0.716589
 H        -1.713993        -2.321886        -1.860274
 H        -1.189891        -2.259211        -0.149238
 H        -2.864944        -1.983323        -0.390801
 H        -2.646335         0.690037        -2.727389
 H        -1.835290         1.773081        -1.286083
 H        -0.621585        -0.520594        -3.187011
 H         1.304815        -0.339444        -1.740819
 H         0.871467         1.523755        -2.167516
 H         0.245354         1.883606        -0.001883
 H         1.577701        -0.656277         1.177034
