19
Iteration:  4702charge 0 multiplicity 1
 C        -1.885964        -1.835320        -0.918873
 C        -1.424861        -0.390710        -1.087177
 C        -1.917314         0.663028        -1.987838
 C        -0.547114         0.004438        -2.184409
 C         0.699087         0.731268        -1.709605
 C         0.340512         0.814342        -0.075941
 O        -0.891730         0.035906         0.166705
 C         1.478665         0.461800         0.798506
 O         2.603960         0.944460         0.612185
 H        -1.061246        -2.601097        -1.342385
 H        -2.264528        -1.970730         0.083743
 H        -2.773177        -2.003257        -1.604714
 H        -2.664662         0.299929        -2.666568
 H        -1.874224         1.681675        -1.742935
 H        -0.416600        -0.659868        -2.970242
 H         1.665907         0.192200        -1.936575
 H         0.752911         1.710452        -2.175211
 H         0.017114         1.791704         0.295718
 H         1.310004        -0.014965         1.784474
