19
Iteration:   332charge 0 multiplicity 1
 C        -1.507188        -1.906993        -0.624194
 C        -1.217413        -0.427337        -0.972206
 C        -2.071188         0.533016        -1.869591
 C        -0.543141         0.292072        -2.114939
 C         0.322188         1.372877        -1.510590
 C         0.272905         1.013808        -0.012985
 O        -0.951227         0.272914         0.231207
 C         1.488871         0.127565         0.390950
 O         2.655702         0.213430         0.094510
 H        -2.188905        -1.870545         0.173304
 H        -1.895455        -2.405019        -1.495559
 H        -0.578504        -2.334254        -0.353793
 H        -2.770954         0.097206        -2.670385
 H        -2.191465         1.583892        -1.319847
 H        -0.097414        -0.374285        -2.842060
 H         1.373100         1.300866        -1.864638
 H        -0.121227         2.337060        -1.686022
 H         0.197574         1.942311         0.577239
 H         1.063729        -0.636663         1.016970
