19
Iteration:  3770charge 0 multiplicity 1
 C        -2.313366        -1.659459        -0.959872
 C        -1.295057        -0.467826        -1.025022
 C        -1.858671         0.759328        -1.771147
 C        -0.602468        -0.098530        -2.289937
 C         0.661558         0.641695        -1.774450
 C         0.448075         0.760140        -0.255901
 O        -0.476745        -0.301489         0.077639
 C         1.621150         0.425654         0.654768
 O         2.377632         1.312709         0.925577
 H        -2.881458        -1.725535        -0.080488
 H        -3.241310        -1.312407        -1.502972
 H        -1.858196        -2.618011        -1.156514
 H        -2.757948         0.775025        -2.325885
 H        -1.826993         1.718561        -1.279712
 H        -0.719954        -0.820501        -3.156374
 H         1.526019         0.169602        -2.037823
 H         0.757165         1.645192        -2.248647
 H         0.042354         1.801731         0.108666
 H         1.631811        -0.650584         0.897420
