19
Iteration:  3606
 C        -2.070895        -1.809345        -0.935519
 C        -1.318430        -0.508099        -1.078058
 C        -1.905570         0.691080        -1.846616
 C        -0.578316         0.138836        -2.255248
 C         0.590657         0.911104        -1.661428
 C         0.235912         0.921673        -0.128671
 O        -0.589253        -0.234965         0.118215
 C         1.483518         0.646128         0.853645
 O         2.636762         0.741768         0.523601
 H        -1.991309        -2.545950        -1.657746
 H        -1.517203        -2.380688        -0.119561
 H        -3.076905        -1.715282        -0.588672
 H        -2.784244         0.494139        -2.483566
 H        -2.060686         1.675114        -1.387102
 H        -0.573968        -0.464735        -3.136464
 H         1.541252         0.344203        -1.929258
 H         0.623150         1.962505        -2.108930
 H        -0.394610         1.758187         0.076608
 H         1.251936         0.350770         1.884057
