19
Iteration:  4051
 C        -1.992346        -1.829352        -0.911314
 C        -1.397475        -0.401638        -1.024484
 C        -1.961074         0.778300        -1.848821
 C        -0.642646         0.100421        -2.232174
 C         0.681211         0.641697        -1.779529
 C         0.344623         0.841836        -0.231864
 O        -0.627665        -0.102347         0.150449
 C         1.455313         0.488014         0.707012
 O         2.602939         0.967255         0.720972
 H        -1.763113        -2.418735        -1.800306
 H        -1.591301        -2.476380        -0.098538
 H        -3.157127        -1.693839        -0.719345
 H        -2.912244         0.548294        -2.328967
 H        -1.913566         1.775748        -1.481123
 H        -0.660606        -0.484267        -3.114642
 H         1.403390        -0.194264        -1.766384
 H         1.132772         1.574501        -2.167507
 H        -0.118833         1.893710         0.159877
 H         1.140158        -0.296888         1.430433
