19
Iteration:  3403
 C        -1.770245        -1.896403        -0.881262
 C        -1.340910        -0.445662        -1.010194
 C        -2.010079         0.626694        -1.982553
 C        -0.497695         0.092697        -2.082340
 C         0.519083         1.007676        -1.536529
 C         0.269331         0.940304         0.024018
 O        -0.855011         0.167064         0.272093
 C         1.517531         0.275515         0.628245
 O         2.637721         0.668145         0.206876
 H        -2.930455        -1.877618        -1.020240
 H        -1.236566        -2.364956        -1.734873
 H        -1.494261        -2.279484         0.100634
 H        -2.613268         0.380644        -2.817051
 H        -2.384326         1.389708        -1.325761
 H        -0.390802        -0.314899        -3.048903
 H         1.492925         0.681045        -1.697966
 H         0.378642         2.007071        -1.815496
 H         0.121503         1.942198         0.755823
 H         1.296572        -0.644470         1.220467
