19
Iteration:  1079charge 0 multiplicity 1
 C        -1.452877        -1.904416        -0.720830
 C        -1.399003        -0.361135        -0.952026
 C        -2.130286         0.655044        -1.854495
 C        -0.687019         0.247940        -2.132947
 C         0.349112         1.159779        -1.549241
 C         0.355735         0.810915        -0.078789
 O        -0.954821         0.319349         0.196110
 C         1.576782         0.057356         0.525693
 O         2.723134         0.476877         0.183144
 H        -2.230443        -2.237384        -0.134604
 H        -1.392752        -2.423512        -1.698253
 H        -0.542986        -2.201857        -0.227794
 H        -2.877565         0.262454        -2.564123
 H        -2.471202         1.575802        -1.370903
 H        -0.386399        -0.341000        -3.029136
 H         1.456237         0.843290        -1.822812
 H         0.147760         2.235194        -1.833808
 H         0.302574         1.802596         0.603194
 H         1.351888        -0.748072         1.348471
