19
Iteration:   772
 C        -1.444223        -1.840439        -0.681561
 C        -1.280252        -0.407220        -1.018990
 C        -2.170075         0.425250        -1.955602
 C        -0.616678         0.309652        -2.110926
 C         0.405920         1.365501        -1.419027
 C         0.294350         0.936136         0.077347
 O        -1.006490         0.387386         0.194251
 C         1.596852         0.103047         0.550686
 O         2.652501         0.204876        -0.043097
 H        -2.330629        -1.945738        -0.049088
 H        -1.425784        -2.438568        -1.589024
 H        -0.507580        -2.086186        -0.026721
 H        -2.891804        -0.034876        -2.676089
 H        -2.425222         1.416750        -1.600368
 H        -0.303333        -0.435758        -2.864765
 H         1.505106         1.365013        -1.727878
 H        -0.071106         2.209857        -1.473910
 H         0.232272         1.703862         0.868267
 H         1.449681        -0.447565         1.592939
