19
Iteration:  2182charge 0 multiplicity 1
 C        -1.523517        -1.886096        -0.721783
 C        -1.236535        -0.425733        -0.967520
 C        -2.059995         0.456563        -1.866266
 C        -0.542375         0.260906        -2.088103
 C         0.287489         1.393334        -1.577116
 C         0.312790         0.984011        -0.018377
 O        -0.875313         0.262766         0.276030
 C         1.430695         0.086658         0.365124
 O         2.664321         0.307667         0.211421
 H        -1.955874        -1.907128         0.231696
 H        -2.326967        -2.184007        -1.374047
 H        -0.738524        -2.747210        -0.756455
 H        -2.836690         0.080074        -2.547410
 H        -2.242274         1.416000        -1.412590
 H        -0.260801        -0.032733        -3.114845
 H         1.409624         1.545081        -1.822599
 H        -0.036593         2.509786        -1.853295
 H         0.357475         1.935692         0.516100
 H         0.990643        -0.696729         1.013752
