19
Iteration:   235charge 0 multiplicity 1
 C        -1.611945        -1.857641        -0.714792
 C        -1.283947        -0.395127        -0.989478
 C        -2.073716         0.561423        -1.789029
 C        -0.557495         0.267865        -2.116381
 C         0.381504         1.367479        -1.581354
 C         0.302893         1.014478        -0.050612
 O        -0.781530         0.058526         0.265121
 C         1.474729         0.223527         0.542227
 O         2.566358         0.263211         0.081609
 H        -2.319394        -1.955426         0.250253
 H        -1.856975        -2.352974        -1.720387
 H        -0.599086        -2.213718        -0.211451
 H        -2.438589         0.133868        -2.780829
 H        -2.208411         1.702523        -1.599597
 H        -0.343159        -0.271687        -3.014450
 H         1.297822         1.290647        -2.034375
 H        -0.079690         2.311518        -1.709071
 H         0.348810         1.935193         0.542203
 H         1.060321        -0.435588         1.310906
