19
Iteration:  1440charge 0 multiplicity 1
 C        -1.562612        -1.922514        -0.898178
 C        -1.333686        -0.381513        -0.892549
 C        -2.041164         0.571501        -1.782700
 C        -0.570679         0.191203        -2.065866
 C         0.402959         1.156924        -1.594946
 C         0.308275         1.007410        -0.057454
 O        -0.872167         0.214987         0.300806
 C         1.473235         0.266355         0.580083
 O         2.607084         0.390357         0.078921
 H        -2.440346        -2.262074        -0.285868
 H        -1.851314        -2.218794        -1.954971
 H        -0.727689        -2.441557        -0.338255
 H        -2.822579         0.211851        -2.384911
 H        -2.173223         1.594938        -1.512412
 H        -0.265440        -0.379746        -2.964779
 H         1.390883         0.890339        -1.930367
 H         0.312519         2.168848        -1.940512
 H         0.233171         2.038533         0.531869
 H         1.469992        -0.472705         1.434901
