19
Iteration:  4129
 C        -2.087386        -1.719240        -1.001982
 C        -1.280965        -0.445332        -1.076270
 C        -1.859906         0.706117        -1.866415
 C        -0.503452         0.056145        -2.219953
 C         0.638570         0.704033        -1.570766
 C         0.248644         0.826369        -0.098905
 O        -0.672519        -0.217240         0.163682
 C         1.429937         0.719585         0.875346
 O         2.547857         0.832744         0.369078
 H        -2.384312        -2.063598        -1.987619
 H        -1.417621        -2.481412        -0.387265
 H        -3.018036        -1.534806        -0.265455
 H        -2.703932         0.321394        -2.372797
 H        -1.702964         1.735678        -1.618682
 H        -0.406262        -0.763230        -2.940882
 H         1.486886        -0.013965        -1.625992
 H         0.991786         1.747334        -1.874974
 H        -0.212082         1.724822         0.237324
 H         1.346559         0.792922         2.009175
