19
Iteration:  4873charge 0 multiplicity 1
 C        -1.780462        -1.842166        -0.693146
 C        -1.370788        -0.430114        -1.140550
 C        -1.829684         0.499145        -2.319091
 C        -0.452631        -0.032851        -2.246432
 C         0.605631         1.010936        -1.627364
 C         0.198269         0.978331        -0.023584
 O        -0.933267         0.184602         0.189578
 C         1.369265         0.463397         0.851164
 O         2.593153         0.619665         0.598510
 H        -2.083125        -1.783152         0.290677
 H        -2.506408        -2.153907        -1.593772
 H        -0.812359        -2.270940        -0.646597
 H        -2.402877        -0.036278        -3.086542
 H        -1.990924         1.563692        -2.228288
 H        -0.000840        -0.694120        -2.891017
 H         1.632820         0.552823        -1.728614
 H         0.512240         1.990586        -2.036359
 H         0.018997         1.989057         0.251795
 H         1.195505        -0.293816         1.649190
