19
Iteration:  4568charge 0 multiplicity 1
 C        -2.133185        -1.672997        -0.952567
 C        -1.365150        -0.451547        -1.093166
 C        -1.940389         0.810118        -1.652779
 C        -0.614021         0.116932        -2.282129
 C         0.819996         0.439297        -1.685122
 C         0.360583         0.729213        -0.130250
 O        -0.571246        -0.307625         0.057200
 C         1.525858         0.459599         0.645319
 O         2.447873         1.304891         0.714912
 H        -3.236807        -1.355247        -0.652665
 H        -2.326920        -1.997359        -2.062065
 H        -1.541084        -2.395809        -0.403975
 H        -2.784828         0.633464        -2.361371
 H        -2.071703         1.771704        -1.099174
 H        -0.858761        -0.359600        -3.295930
 H         1.526977        -0.446457        -1.696342
 H         1.177362         1.363509        -2.071154
 H        -0.157857         1.613809         0.131089
 H         1.419908        -0.452974         1.170003
