19
Iteration:  3557
 C        -1.817216        -1.860383        -1.071110
 C        -1.389013        -0.446271        -1.039764
 C        -2.062638         0.609257        -1.861421
 C        -0.567034         0.159431        -2.178754
 C         0.612640         0.834559        -1.599667
 C         0.345470         0.948371        -0.012193
 O        -0.815616         0.007914         0.254589
 C         1.503849         0.625233         0.867567
 O         2.634673         0.650613         0.318086
 H        -0.988938        -2.638353        -1.424252
 H        -2.148852        -2.322077        -0.144508
 H        -2.731063        -1.978845        -1.794843
 H        -2.858470         0.446622        -2.588228
 H        -2.100929         1.593760        -1.429002
 H        -0.521019        -0.430221        -3.121066
 H         1.398321         0.121456        -1.647049
 H         0.891838         1.620515        -2.271995
 H         0.035655         1.857434         0.340020
 H         1.412862         0.243585         1.862267
