19
Iteration:  3707
 C        -2.043730        -1.809257        -1.034849
 C        -1.465239        -0.422119        -1.037165
 C        -1.941395         0.824060        -1.811878
 C        -0.636713         0.231116        -2.259694
 C         0.700612         0.475473        -1.613140
 C         0.376178         0.687497        -0.166220
 O        -0.755766        -0.162707         0.194461
 C         1.635303         0.410128         0.595818
 O         2.547411         1.261295         0.722113
 H        -3.153629        -1.905937        -0.914707
 H        -1.640110        -2.507159        -1.957303
 H        -1.613587        -2.332731        -0.227696
 H        -2.730191         0.609655        -2.500054
 H        -2.111285         1.766284        -1.281595
 H        -0.536628        -0.401444        -3.197194
 H         1.366933        -0.542813        -1.599749
 H         1.324863         1.366702        -1.964493
 H         0.103339         1.720501         0.065156
 H         1.827246        -0.604584         1.045355
