19
Iteration:  1737
 C        -1.352738        -1.900763        -0.785863
 C        -1.291224        -0.379683        -0.948786
 C        -2.128763         0.437417        -1.843109
 C        -0.623035         0.285581        -2.072758
 C         0.410160         1.338804        -1.489929
 C         0.355142         1.028062        -0.005821
 O        -0.943420         0.324164         0.258872
 C         1.516543         0.285359         0.578667
 O         2.506007         0.104438        -0.017171
 H        -2.372564        -2.346868        -0.470616
 H        -1.170132        -2.237883        -1.812196
 H        -0.571528        -2.375245        -0.189191
 H        -2.864164        -0.005813        -2.524679
 H        -2.329760         1.454419        -1.453930
 H        -0.317265        -0.470094        -2.825839
 H         1.466253         1.323352        -1.925406
 H         0.051686         2.386611        -1.732854
 H         0.206259         2.071431         0.585891
 H         1.263148        -0.312474         1.478443
