19
Iteration:  4043
 C        -1.959260        -1.828510        -0.850155
 C        -1.424901        -0.408089        -1.009136
 C        -1.968553         0.805693        -1.893011
 C        -0.692220         0.089535        -2.242983
 C         0.676746         0.608932        -1.694624
 C         0.382123         0.886194        -0.151079
 O        -0.633493        -0.102005         0.083265
 C         1.501984         0.417891         0.710705
 O         2.555373         1.002070         0.707376
 H        -1.896361        -2.224990        -1.829024
 H        -1.351360        -2.462751        -0.090772
 H        -3.028568        -2.013043        -0.836944
 H        -2.831473         0.835413        -2.527351
 H        -1.950825         1.784814        -1.467162
 H        -0.767124        -0.434522        -3.189569
 H         1.506646        -0.087871        -1.805843
 H         1.218964         1.384280        -2.309660
 H         0.040105         1.951577        -0.103949
 H         1.129667        -0.495525         1.281352
