19
Iteration:  3310
 C        -1.616829        -1.936845        -0.849241
 C        -1.284436        -0.380330        -1.017713
 C        -2.162236         0.520867        -1.905353
 C        -0.641628         0.240641        -2.170131
 C         0.422185         1.198851        -1.599768
 C         0.392669         0.950146        -0.035894
 O        -0.859724         0.201204         0.179624
 C         1.498688         0.345169         0.641729
 O         2.709400         0.384748         0.349016
 H        -1.250421        -2.667819        -1.542496
 H        -1.161305        -2.262234         0.108265
 H        -2.744379        -2.095990        -0.752415
 H        -2.961655         0.055444        -2.483831
 H        -2.372588         1.453521        -1.346061
 H        -0.285185        -0.265747        -3.061055
 H         1.342208         0.728574        -2.043862
 H         0.310063         2.251087        -1.890548
 H         0.051795         1.988488         0.522428
 H         1.185106        -0.333319         1.458818
