19
Iteration:  4314charge 0 multiplicity 1
 C        -2.102999        -1.783806        -0.755260
 C        -1.407347        -0.447018        -1.024413
 C        -2.089850         0.528703        -1.955432
 C        -0.598980        -0.019122        -2.236297
 C         0.525862         0.925000        -1.877058
 C         0.510053         0.897463        -0.307559
 O        -0.712206         0.099198         0.095301
 C         1.755745         0.339108         0.445116
 O         2.604335         0.880074         1.199636
 H        -1.873934        -2.386435        -1.530011
 H        -1.809761        -2.258325         0.188582
 H        -3.220018        -1.788756        -0.613558
 H        -2.862349         0.023994        -2.536296
 H        -2.087728         1.615017        -1.760833
 H        -0.692540        -0.507109        -3.217676
 H         1.468631         0.486610        -2.275005
 H         0.416180         1.993316        -2.301961
 H         0.335970         1.954238         0.280478
 H         1.955134        -0.587618        -0.198801
