19
Iteration:  2374
 C        -1.669053        -1.892362        -0.899078
 C        -1.302828        -0.402025        -0.930617
 C        -2.050268         0.483133        -1.833445
 C        -0.525601         0.231503        -2.098886
 C         0.482476         1.210285        -1.572285
 C         0.317526         0.966485         0.063997
 O        -0.843013         0.194834         0.342580
 C         1.429237         0.237814         0.551092
 O         2.585101         0.442851         0.029420
 H        -1.845013        -2.035106         0.248242
 H        -2.561570        -2.154820        -1.493626
 H        -0.808449        -2.466798        -1.030324
 H        -2.692032         0.022496        -2.609970
 H        -2.257272         1.521401        -1.448798
 H        -0.320723        -0.400162        -2.975387
 H         1.449888         0.762209        -1.888451
 H         0.435871         2.308067        -1.899720
 H         0.197118         2.037735         0.467325
 H         1.352855        -0.328918         1.498793
