19
Iteration:  4165
 C        -2.019847        -1.845553        -1.017755
 C        -1.343125        -0.503287        -1.031578
 C        -1.842263         0.705932        -1.825558
 C        -0.558354         0.056773        -2.151034
 C         0.693087         0.682363        -1.585069
 C         0.242220         0.932590        -0.142902
 O        -0.814885        -0.046606         0.153312
 C         1.438902         0.655377         0.732014
 O         2.671105         0.822333         0.504176
 H        -2.969630        -2.064701        -1.637513
 H        -1.308457        -2.664018        -1.327643
 H        -2.418497        -2.021554        -0.005950
 H        -2.644277         0.628864        -2.590798
 H        -2.008594         1.756199        -1.475694
 H        -0.355776        -0.614414        -3.001823
 H         1.535904        -0.035653        -1.630284
 H         1.064606         1.560744        -2.118438
 H         0.026639         2.033798        -0.002267
 H         1.061561         0.290652         1.733360
