19
Iteration:  2641charge 0 multiplicity 1
 C        -1.538241        -1.912034        -0.830923
 C        -1.362978        -0.410503        -0.921546
 C        -2.157453         0.535175        -1.773955
 C        -0.793094         0.311923        -2.118668
 C         0.466154         1.104713        -1.551561
 C         0.373536         0.868253        -0.057926
 O        -0.907130         0.367598         0.191036
 C         1.534347         0.120563         0.534404
 O         2.734993         0.481403         0.229698
 H        -2.479728        -2.379355        -0.529141
 H        -1.334753        -2.193112        -1.849648
 H        -0.716049        -2.226493        -0.323275
 H        -2.855190         0.218606        -2.600204
 H        -2.523495         1.434795        -1.243076
 H        -0.475213        -0.355746        -2.934048
 H         1.434820         0.808252        -2.041533
 H         0.492555         2.161206        -1.943231
 H         0.540035         1.848206         0.465242
 H         1.403377        -0.821819         1.104755
