19
Iteration:  1742charge 0 multiplicity 1
 C        -1.367808        -1.909483        -0.787829
 C        -1.279895        -0.413791        -0.913071
 C        -2.123770         0.442793        -1.832860
 C        -0.588211         0.268889        -2.097469
 C         0.410531         1.379098        -1.526382
 C         0.343148         1.052902        -0.006701
 O        -0.921783         0.334429         0.262288
 C         1.480488         0.287838         0.587166
 O         2.523249         0.089815        -0.002430
 H        -2.362953        -2.326428        -0.572549
 H        -1.267809        -2.189558        -1.868703
 H        -0.570342        -2.271765        -0.105972
 H        -2.902588        -0.001975        -2.448718
 H        -2.384972         1.392012        -1.405157
 H        -0.386008        -0.359635        -2.955256
 H         1.365790         1.326521        -1.961629
 H        -0.046996         2.333818        -1.639861
 H         0.182338         1.908402         0.481175
 H         1.256598        -0.415287         1.431824
