19
Iteration:    45charge 0 multiplicity 1
 C        -1.868094        -1.809118        -0.939992
 C        -1.317346        -0.439021        -0.982090
 C        -2.036579         0.747825        -1.715426
 C        -0.695188         0.203024        -2.151344
 C         0.482486         0.946972        -1.587336
 C         0.283680         0.853719        -0.040591
 O        -0.750513        -0.106613         0.271089
 C         1.614648         0.532518         0.610504
 O         2.727812         0.576450         0.168055
 H        -2.367558        -1.983895        -0.013192
 H        -2.538610        -1.971153        -1.806307
 H        -0.953673        -2.392973        -1.002547
 H        -2.917703         0.449237        -2.205290
 H        -2.176713         1.700326        -1.210895
 H        -0.551243        -0.318179        -3.097428
 H         1.355663         0.395843        -1.774727
 H         0.690153         1.859223        -1.983614
 H        -0.099603         1.762752         0.297282
 H         1.372661         0.033074         1.636311
