19
Iteration:   649charge 0 multiplicity 1
 C        -1.454862        -1.860948        -0.698085
 C        -1.281710        -0.355191        -0.940146
 C        -2.090776         0.511003        -1.937817
 C        -0.629825         0.310106        -2.144966
 C         0.371233         1.319465        -1.525299
 C         0.322523         0.979439         0.016352
 O        -0.933299         0.261635         0.285041
 C         1.497318         0.137103         0.531898
 O         2.600633         0.196589         0.028111
 H        -2.064913        -1.980846         0.214815
 H        -1.664697        -2.497872        -1.554160
 H        -0.370714        -2.168482        -0.430673
 H        -2.986330         0.187248        -2.466397
 H        -2.281337         1.478388        -1.489927
 H        -0.201531        -0.289344        -2.935170
 H         1.394150         1.182665        -1.905996
 H         0.140897         2.284886        -1.755796
 H         0.264353         1.950366         0.496331
 H         1.282823        -0.488699         1.377021
