19
Iteration:  2660charge 0 multiplicity 1
 C        -1.505600        -1.915506        -0.890838
 C        -1.366095        -0.385986        -0.948884
 C        -2.226031         0.556016        -1.804220
 C        -0.716887         0.225413        -2.107255
 C         0.364892         1.189686        -1.644559
 C         0.408604         1.005068        -0.097751
 O        -0.862220         0.289848         0.302908
 C         1.520078         0.155794         0.472291
 O         2.799656         0.372827         0.327222
 H        -2.551572        -2.097158        -0.446334
 H        -1.450393        -2.348222        -1.838678
 H        -0.820691        -2.345296        -0.051293
 H        -2.945619        -0.035107        -2.379163
 H        -2.473205         1.530026        -1.360924
 H        -0.491239        -0.358669        -3.045740
 H         1.362849         0.980436        -2.116005
 H         0.239935         2.327337        -2.051123
 H         0.237857         1.873931         0.442052
 H         1.155226        -0.606051         1.216496
