19
Iteration:   138charge 0 multiplicity 1
 C        -1.650972        -1.915037        -0.829134
 C        -1.344973        -0.388972        -0.923069
 C        -2.105770         0.654878        -1.713311
 C        -0.664181         0.314977        -2.160721
 C         0.506322         1.137728        -1.630564
 C         0.265543         1.009278        -0.107542
 O        -0.675662         0.000206         0.282901
 C         1.480458         0.376114         0.581874
 O         2.578964         0.325026         0.132568
 H        -2.487316        -2.238402        -0.067075
 H        -1.949376        -2.348938        -1.846148
 H        -0.591498        -2.260500        -0.536758
 H        -2.828001         0.460819        -2.525587
 H        -2.220958         1.701736        -1.293225
 H        -0.555077        -0.268796        -3.058689
 H         1.554301         0.691614        -1.843736
 H         0.592560         2.323151        -1.970635
 H         0.059075         1.992290         0.436723
 H         1.142324        -0.047076         1.636827
