19
Iteration:   862charge 0 multiplicity 1
 C        -1.576578        -1.900377        -0.746938
 C        -1.289139        -0.449324        -1.049673
 C        -2.141859         0.363282        -1.879563
 C        -0.676753         0.348591        -2.130835
 C         0.315152         1.442257        -1.509412
 C         0.410662         1.029187        -0.024155
 O        -0.894052         0.293477         0.180244
 C         1.630779         0.297502         0.610000
 O         2.676626         0.092888         0.176287
 H        -2.165809        -1.942714         0.194754
 H        -2.053120        -2.541934        -1.587768
 H        -0.631518        -2.442805        -0.450379
 H        -2.646315        -0.099187        -2.758251
 H        -2.646990         1.291778        -1.458262
 H        -0.276855        -0.041693        -3.052173
 H         1.228330         1.273458        -2.108113
 H        -0.090046         2.401548        -1.696468
 H         0.378014         1.945407         0.627302
 H         1.322251        -0.119016         1.538270
