19
Iteration:  2419charge 0 multiplicity 1
 C        -1.661263        -1.909511        -0.774158
 C        -1.345800        -0.473166        -1.008854
 C        -2.124966         0.543416        -1.874664
 C        -0.684501         0.290952        -2.182845
 C         0.303672         1.315150        -1.615612
 C         0.405096         0.983175        -0.152428
 O        -0.788109         0.086928         0.251978
 C         1.616713         0.351778         0.635377
 O         2.731340         0.289597         0.269158
 H        -2.370650        -1.839790         0.187104
 H        -2.095623        -2.355492        -1.639083
 H        -0.747769        -2.295656        -0.424778
 H        -2.963994         0.154217        -2.453908
 H        -2.258722         1.519017        -1.355461
 H        -0.265654        -0.309415        -3.032458
 H         1.313379         1.222762        -2.030516
 H        -0.105965         2.363136        -1.779061
 H         0.108554         1.911695         0.509285
 H         1.200259        -0.140025         1.545902
