19
Iteration:   909charge 0 multiplicity 1
 C        -1.479472        -1.910609        -0.836619
 C        -1.342408        -0.358626        -0.896898
 C        -2.058735         0.591941        -1.861196
 C        -0.601201         0.219075        -2.070096
 C         0.436186         1.166893        -1.542080
 C         0.311028         1.019874        -0.029702
 O        -0.843311         0.232540         0.265263
 C         1.453807         0.295649         0.630265
 O         2.556667         0.249482         0.006577
 H        -2.352071        -2.308099        -0.258381
 H        -1.481804        -2.305454        -1.841925
 H        -0.684547        -2.396452        -0.356957
 H        -2.829729         0.269169        -2.528766
 H        -2.220109         1.504891        -1.348912
 H        -0.305127        -0.391817        -2.953418
 H         1.445874         1.089617        -1.846855
 H        -0.091071         2.178908        -1.788303
 H         0.158194         2.073918         0.489118
 H         1.317694        -0.234170         1.547087
