19
Iteration:  2158charge 0 multiplicity 1
 C        -1.590750        -1.858023        -0.802190
 C        -1.280523        -0.404135        -0.957053
 C        -2.026029         0.415985        -1.874674
 C        -0.581702         0.252806        -2.102507
 C         0.257350         1.382307        -1.515092
 C         0.340023         1.063503        -0.013536
 O        -0.789731         0.253940         0.257322
 C         1.519203         0.139606         0.464781
 O         2.636224         0.258730         0.172135
 H        -2.185342        -2.062299         0.168652
 H        -2.155552        -2.370160        -1.593978
 H        -0.703072        -2.443212        -0.679779
 H        -2.773251        -0.206529        -2.397965
 H        -2.418862         1.352789        -1.445361
 H        -0.286174        -0.273516        -2.963822
 H         1.253006         1.534115        -1.933732
 H        -0.146252         2.349879        -1.970648
 H         0.238037         2.094222         0.572720
 H         0.994166        -0.598194         1.165740
