19
Iteration:  1443charge 0 multiplicity 1
 C        -1.565756        -1.944162        -0.903026
 C        -1.322947        -0.377036        -0.872797
 C        -2.044855         0.572649        -1.790243
 C        -0.541706         0.211569        -2.069844
 C         0.420446         1.156391        -1.594513
 C         0.306965         0.996809        -0.073710
 O        -0.883295         0.217226         0.309682
 C         1.440916         0.271469         0.587671
 O         2.613845         0.395353         0.062199
 H        -2.479551        -2.308833        -0.212795
 H        -1.854655        -2.190697        -1.897349
 H        -0.715762        -2.401035        -0.420420
 H        -2.942622         0.218946        -2.340162
 H        -2.152480         1.617675        -1.391059
 H        -0.198749        -0.431786        -2.866216
 H         1.489505         0.829688        -1.943327
 H         0.282985         2.216495        -2.011996
 H         0.182782         2.018035         0.551882
 H         1.384438        -0.533708         1.368510
