19
Iteration:  1629charge 0 multiplicity 1
 C        -1.469651        -1.832681        -0.729787
 C        -1.288928        -0.397091        -0.963532
 C        -2.069585         0.385752        -1.930146
 C        -0.610946         0.329355        -2.121627
 C         0.275594         1.371829        -1.449633
 C         0.346127         1.024786         0.026878
 O        -0.903413         0.303634         0.252243
 C         1.509039         0.123333         0.475917
 O         2.693112         0.207349         0.076172
 H        -2.329650        -2.087702         0.083968
 H        -2.033261        -2.250226        -1.584603
 H        -0.547420        -2.354809        -0.469756
 H        -2.586088        -0.240709        -2.674947
 H        -2.499199         1.383980        -1.712383
 H        -0.220736        -0.376704        -2.864747
 H         1.206355         1.451283        -1.989719
 H        -0.321558         2.272438        -1.363114
 H         0.353009         1.920727         0.541251
 H         1.052380        -0.472092         1.268763
