19
Iteration:  1384charge 0 multiplicity 1
 C        -1.750508        -1.872883        -0.733984
 C        -1.285306        -0.457243        -1.002565
 C        -2.132818         0.484324        -1.905996
 C        -0.634404         0.301519        -2.172165
 C         0.328223         1.281721        -1.549662
 C         0.346783         0.961140        -0.041729
 O        -0.777345         0.149109         0.207902
 C         1.561473         0.358079         0.601092
 O         2.780895         0.312296         0.196647
 H        -2.703713        -1.907293        -0.236315
 H        -1.839156        -2.461575        -1.732357
 H        -1.030591        -2.650058        -0.324978
 H        -2.805926        -0.014683        -2.570792
 H        -2.552924         1.232952        -1.285608
 H        -0.220417        -0.161349        -3.079878
 H         1.319912         1.298218        -1.919628
 H        -0.084763         2.261257        -1.634969
 H         0.280124         2.023473         0.601297
 H         1.393546        -0.199957         1.556873
