19
Iteration:  4575
 C        -2.179868        -1.687078        -0.964393
 C        -1.356052        -0.439007        -1.091981
 C        -1.960728         0.767412        -1.720319
 C        -0.633861         0.168575        -2.270352
 C         0.767309         0.432120        -1.687210
 C         0.363718         0.717842        -0.120680
 O        -0.537364        -0.297663         0.060043
 C         1.547379         0.529915         0.693103
 O         2.446890         1.259285         0.711291
 H        -2.984386        -1.397503        -0.409291
 H        -2.389998        -2.009335        -1.978776
 H        -1.521934        -2.504259        -0.534472
 H        -2.817164         0.625068        -2.384531
 H        -1.956214         1.632481        -1.071575
 H        -0.602369        -0.222173        -3.247171
 H         1.356674        -0.423983        -1.832314
 H         1.380783         1.315912        -2.100963
 H        -0.164993         1.706630         0.016143
 H         1.584304        -0.487022         1.346433
