19
Iteration:  3588
 C        -1.963222        -1.879588        -0.970071
 C        -1.337144        -0.440072        -1.042503
 C        -1.881857         0.692984        -1.788169
 C        -0.540327         0.112714        -2.189977
 C         0.620092         0.896814        -1.616699
 C         0.275226         0.898139        -0.153599
 O        -0.697110        -0.180622         0.242101
 C         1.407610         0.674427         0.681346
 O         2.591359         0.698376         0.435394
 H        -1.549554        -2.428264        -1.871308
 H        -1.822752        -2.444777        -0.051970
 H        -3.039498        -1.780560        -1.128307
 H        -2.736345         0.583522        -2.430203
 H        -1.793525         1.656159        -1.373297
 H        -0.397119        -0.371233        -3.174970
 H         1.583956         0.375636        -1.601322
 H         0.642024         1.885742        -2.083357
 H        -0.146067         1.925972         0.316933
 H         0.999062         0.330698         1.711805
