19
Iteration:  4526charge 0 multiplicity 1
 C        -2.267493        -1.789948        -1.063119
 C        -1.439532        -0.442862        -1.049407
 C        -1.911000         0.853826        -1.787547
 C        -0.673923        -0.054132        -2.264047
 C         0.620944         0.606531        -1.728125
 C         0.434440         0.685488        -0.176589
 O        -0.663760        -0.255051         0.164008
 C         1.808439         0.411496         0.621735
 O         2.530991         1.365091         0.890436
 H        -3.361643        -1.379140        -1.164953
 H        -1.953453        -2.442939        -1.907143
 H        -1.981370        -2.372705        -0.226661
 H        -2.744564         0.705441        -2.485167
 H        -1.706912         1.817765        -1.298538
 H        -0.799621        -0.606914        -3.265007
 H         1.605251        -0.017533        -1.844141
 H         0.789455         1.574564        -2.134781
 H         0.116159         1.815121         0.043867
 H         2.307081        -0.599582         0.991363
