19
Iteration:  1332
 C        -1.608070        -1.905066        -0.884315
 C        -1.356450        -0.384369        -0.923444
 C        -2.084851         0.583656        -1.871299
 C        -0.619825         0.179731        -2.048943
 C         0.468387         1.125739        -1.516437
 C         0.320622         1.011477         0.027423
 O        -0.913279         0.203979         0.308958
 C         1.492464         0.222255         0.514206
 O         2.670823         0.470369         0.056501
 H        -2.003180        -2.100992         0.175368
 H        -2.243867        -2.452690        -1.691615
 H        -0.577256        -2.377014        -0.860715
 H        -2.724581         0.213073        -2.644948
 H        -2.089461         1.604924        -1.547399
 H        -0.215853        -0.440791        -2.870487
 H         1.565519         0.709466        -1.708747
 H         0.346261         2.243298        -1.847776
 H         0.296163         1.927370         0.564687
 H         1.176317        -0.625718         1.207947
