19
Iteration:   221charge 0 multiplicity 1
 C        -1.590130        -1.851590        -0.791418
 C        -1.281041        -0.387944        -0.915874
 C        -2.035103         0.549338        -1.866412
 C        -0.596895         0.248786        -2.149756
 C         0.334246         1.276241        -1.542562
 C         0.323345         1.071500        -0.016718
 O        -0.727131         0.131819         0.267848
 C         1.462419         0.252686         0.531067
 O         2.584136         0.245056         0.101781
 H        -2.266671        -1.958507        -0.026006
 H        -2.093517        -2.288465        -1.686893
 H        -0.760314        -2.441010        -0.646137
 H        -2.967102         0.045714        -2.186476
 H        -2.371731         1.543502        -1.432138
 H        -0.272267        -0.337321        -3.028116
 H         1.410872         1.215911        -1.882079
 H        -0.017516         2.241408        -1.748147
 H         0.053832         1.972904         0.537398
 H         1.181296        -0.451141         1.390982
