19
Iteration:   500charge 0 multiplicity 1
 C        -1.586737        -1.866660        -0.843628
 C        -1.272169        -0.373248        -0.891460
 C        -2.057734         0.489517        -1.887666
 C        -0.514217         0.189273        -2.065279
 C         0.244632         1.307915        -1.541914
 C         0.249579         1.074386         0.009082
 O        -0.825564         0.259034         0.351940
 C         1.543608         0.287094         0.473578
 O         2.648417         0.153847         0.052432
 H        -2.334770        -2.022585        -0.044378
 H        -2.088011        -2.157485        -1.742909
 H        -0.645171        -2.448615        -0.839283
 H        -2.700756        -0.013007        -2.528128
 H        -2.193214         1.456873        -1.582197
 H        -0.028762        -0.518521        -2.735297
 H         1.210613         1.244569        -2.005869
 H        -0.159810         2.329998        -1.820177
 H         0.302135         2.006617         0.582268
 H         1.194446        -0.301714         1.404623
