19
Iteration:  1991charge 0 multiplicity 1
 C        -1.476705        -1.870514        -0.743442
 C        -1.307763        -0.432231        -0.941878
 C        -2.047413         0.524768        -1.892681
 C        -0.594892         0.284197        -2.149641
 C         0.404490         1.249603        -1.551247
 C         0.304782         0.992894         0.035323
 O        -0.934390         0.267127         0.248211
 C         1.466123         0.181764         0.562287
 O         2.626346         0.313856         0.077137
 H        -1.957164        -2.101402         0.298997
 H        -2.145619        -2.253921        -1.575263
 H        -0.582201        -2.422886        -0.885341
 H        -2.832602         0.002001        -2.425290
 H        -2.487345         1.454936        -1.539511
 H        -0.289732        -0.482487        -2.962126
 H         1.485071         1.238214        -1.791461
 H         0.066764         2.374738        -1.764333
 H         0.324759         1.883769         0.548281
 H         1.364509        -0.666571         1.252513
