19
Iteration:  4031charge 0 multiplicity 1
 C        -1.947092        -1.827714        -0.901283
 C        -1.490871        -0.393091        -1.091698
 C        -1.968073         0.835734        -1.862235
 C        -0.673745         0.086223        -2.232895
 C         0.671877         0.554975        -1.648391
 C         0.373914         0.840415        -0.209824
 O        -0.690518        -0.050238         0.093781
 C         1.529866         0.367991         0.694916
 O         2.557081         1.054836         0.725242
 H        -1.765076        -2.401477        -1.745630
 H        -1.139492        -2.220000        -0.174388
 H        -2.850222        -1.929110        -0.254000
 H        -2.644878         0.678299        -2.655189
 H        -1.872274         1.729057        -1.334913
 H        -0.587497        -0.489002        -3.118497
 H         1.287141        -0.318168        -1.736002
 H         0.898651         1.536293        -2.115722
 H         0.230938         1.935119         0.118258
 H         1.629292        -0.666527         1.129963
