19
Iteration:   519
 C        -1.633533        -1.921727        -0.848727
 C        -1.296121        -0.457725        -0.845210
 C        -2.077617         0.461091        -1.853575
 C        -0.554210         0.198072        -2.056722
 C         0.488096         1.358140        -1.502938
 C         0.387751         1.167050         0.026377
 O        -0.827290         0.263804         0.290079
 C         1.473633         0.234601         0.529558
 O         2.519506         0.229483        -0.017100
 H        -2.209203        -2.311928        -0.073390
 H        -2.141175        -2.101394        -1.725710
 H        -0.713789        -2.498603        -0.778123
 H        -2.713953        -0.194602        -2.550856
 H        -2.530218         1.469537        -1.591642
 H        -0.279245        -0.324138        -2.980838
 H         1.585299         1.068426        -1.896466
 H         0.001795         2.291997        -1.881848
 H         0.254792         2.141652         0.574075
 H         1.218788        -0.421610         1.342960
