19
Iteration:  1993
 C        -1.474434        -1.866279        -0.748400
 C        -1.322191        -0.454147        -0.933063
 C        -2.057855         0.519557        -1.902112
 C        -0.600165         0.290073        -2.165061
 C         0.403013         1.257418        -1.538419
 C         0.303451         0.993657         0.035099
 O        -0.924546         0.270524         0.242821
 C         1.470946         0.170048         0.574000
 O         2.647908         0.311884         0.078245
 H        -1.947611        -2.095768         0.311689
 H        -2.225793        -2.208397        -1.547403
 H        -0.562969        -2.394318        -0.830092
 H        -2.846494        -0.018753        -2.484151
 H        -2.489962         1.481366        -1.604551
 H        -0.349151        -0.491756        -2.974909
 H         1.474264         1.304722        -1.849840
 H         0.084744         2.377594        -1.767189
 H         0.244649         1.930851         0.613529
 H         1.374383        -0.641617         1.317765
