19
Iteration:  3735
 C        -2.200045        -1.755629        -1.024698
 C        -1.426584        -0.469631        -1.087139
 C        -1.950292         0.833515        -1.808203
 C        -0.666121         0.052446        -2.285079
 C         0.710245         0.515665        -1.620556
 C         0.391740         0.714263        -0.134267
 O        -0.683975        -0.221915         0.124173
 C         1.740169         0.454587         0.597315
 O         2.519233         1.320433         0.824044
 H        -3.069856        -1.628100        -0.384640
 H        -2.273691        -2.129974        -1.980565
 H        -1.653765        -2.651391        -0.545278
 H        -2.767591         0.689216        -2.551890
 H        -1.837109         1.715686        -1.177161
 H        -0.475522        -0.451083        -3.215512
 H         1.478224        -0.257182        -1.657197
 H         1.082471         1.432818        -2.053683
 H        -0.077574         1.668737         0.263353
 H         2.047738        -0.603291         0.691006
