19
Iteration:   956
 C        -1.643919        -1.876309        -0.798460
 C        -1.264976        -0.411764        -0.979738
 C        -2.088670         0.486049        -1.870229
 C        -0.587872         0.232242        -2.093957
 C         0.422291         1.257116        -1.532653
 C         0.334162         1.013504         0.040166
 O        -0.805967         0.206142         0.261427
 C         1.529251         0.300642         0.590766
 O         2.554200         0.306698         0.034095
 H        -2.372863        -2.064371        -0.069399
 H        -1.925453        -2.190755        -1.768767
 H        -0.825248        -2.586888        -0.542609
 H        -2.633991        -0.111103        -2.611564
 H        -2.437786         1.491153        -1.564856
 H        -0.365116        -0.322571        -2.971419
 H         1.499727         0.873794        -1.685072
 H         0.316018         2.409873        -1.683057
 H         0.115776         2.015854         0.599676
 H         1.258288        -0.252962         1.484020
