19
Iteration:   126charge 0 multiplicity 1
 C        -1.659869        -1.931472        -0.856262
 C        -1.307098        -0.462825        -0.947632
 C        -2.067897         0.704803        -1.685967
 C        -0.692707         0.289490        -2.058380
 C         0.471839         1.132838        -1.620584
 C         0.407556         1.055017        -0.135649
 O        -0.650746         0.014978         0.184675
 C         1.413252         0.359682         0.579388
 O         2.565289         0.360904         0.181373
 H        -2.581349        -1.925362        -0.102155
 H        -2.050818        -2.400154        -1.882015
 H        -1.001185        -2.772638        -0.387813
 H        -2.921927         0.323525        -2.318399
 H        -2.249616         1.694620        -1.180926
 H        -0.527340        -0.226296        -3.002990
 H         1.415154         0.748319        -2.076981
 H         0.256370         2.294025        -1.977210
 H         0.103943         2.045562         0.316863
 H         1.157162        -0.085960         1.644050
