19
Iteration:   869charge 0 multiplicity 1
 C        -1.588259        -1.867076        -0.743156
 C        -1.295087        -0.465784        -1.023735
 C        -2.176804         0.330823        -1.903642
 C        -0.669401         0.403478        -2.101975
 C         0.366928         1.386484        -1.510432
 C         0.340328         1.066517        -0.004489
 O        -0.888335         0.273131         0.148521
 C         1.589094         0.309479         0.616080
 O         2.759225         0.081894         0.149754
 H        -2.281062        -1.883506         0.095499
 H        -2.012770        -2.378341        -1.606816
 H        -0.539183        -2.300796        -0.452238
 H        -2.671361        -0.200301        -2.733514
 H        -2.727663         1.181925        -1.508862
 H        -0.422574        -0.055511        -3.042402
 H         1.356715         1.221993        -2.103981
 H        -0.015962         2.419702        -1.458112
 H         0.188708         1.932667         0.577170
 H         1.397929        -0.106396         1.701128
