19
Iteration:   259
 C        -1.596561        -1.927201        -0.717854
 C        -1.270038        -0.421472        -1.008906
 C        -2.049850         0.553452        -1.906777
 C        -0.613828         0.323476        -2.152431
 C         0.386048         1.282256        -1.417722
 C         0.274692         1.016550         0.014008
 O        -0.935745         0.223395         0.205841
 C         1.569214         0.204194         0.529650
 O         2.691193         0.261654         0.023141
 H        -2.517460        -1.914795         0.071133
 H        -1.755638        -2.488241        -1.651124
 H        -0.783207        -2.347118         0.057856
 H        -2.827458        -0.010756        -2.402286
 H        -2.359174         1.343928        -1.269235
 H        -0.238376        -0.257050        -2.997465
 H         1.380425         1.126974        -1.783647
 H         0.001348         2.328881        -1.598484
 H         0.310218         1.958497         0.606008
 H         1.311179        -0.391963         1.400165
