19
Iteration:  3894charge 0 multiplicity 1
 C        -2.115221        -1.682538        -0.877176
 C        -1.392576        -0.468281        -1.093248
 C        -1.995934         0.733940        -1.824932
 C        -0.691778         0.023946        -2.348619
 C         0.674906         0.487974        -1.796105
 C         0.466888         0.729546        -0.336394
 O        -0.585114        -0.093744         0.101065
 C         1.705441         0.424791         0.546587
 O         2.391327         1.252204         1.152302
 H        -2.613399        -1.539501         0.136662
 H        -2.906536        -1.803217        -1.611474
 H        -1.529167        -2.533385        -0.892283
 H        -2.935088         0.534510        -2.402528
 H        -1.736690         1.739086        -1.424679
 H        -0.628000        -0.599166        -3.232829
 H         1.227726        -0.375466        -1.918280
 H         1.169093         1.382842        -2.086032
 H         0.147193         1.805653        -0.064751
 H         2.092283        -0.635365         0.417181
