19
Iteration:   651
 C        -1.432987        -1.845704        -0.683693
 C        -1.283327        -0.338931        -0.948037
 C        -2.101786         0.516630        -1.954407
 C        -0.632495         0.306911        -2.152344
 C         0.369724         1.306472        -1.529139
 C         0.326530         0.976261         0.038142
 O        -0.945593         0.242223         0.281382
 C         1.515695         0.138179         0.532381
 O         2.590134         0.200412         0.023182
 H        -2.027577        -1.994900         0.187534
 H        -1.692003        -2.408318        -1.503124
 H        -0.417705        -2.178499        -0.378863
 H        -2.969545         0.215883        -2.452086
 H        -2.248106         1.477760        -1.492519
 H        -0.145735        -0.290308        -2.934692
 H         1.440056         1.094527        -1.924655
 H         0.038418         2.318533        -1.760481
 H         0.290203         1.959251         0.567975
 H         1.279353        -0.512671         1.365786
