19
Iteration:  2995charge 0 multiplicity 1
 C        -1.414843        -1.857224        -0.799240
 C        -1.191256        -0.379215        -0.893515
 C        -2.027956         0.401525        -1.914251
 C        -0.478330         0.273338        -1.981711
 C         0.315582         1.348699        -1.493171
 C         0.250104         1.076483         0.075283
 O        -0.954672         0.369937         0.262295
 C         1.497898         0.218722         0.537148
 O         2.479802         0.087654        -0.120445
 H        -2.418002        -2.119290        -0.674695
 H        -1.096755        -2.585111        -1.647245
 H        -0.883368        -2.286003         0.089484
 H        -2.662652        -0.076568        -2.658602
 H        -2.371415         1.289539        -1.375408
 H        -0.279783        -0.353803        -2.824380
 H         1.387240         1.221339        -1.879711
 H         0.039142         2.418722        -1.810384
 H         0.193168         2.034192         0.826732
 H         1.273053        -0.367397         1.499315
