19
Iteration:   842
 C        -1.459915        -1.918652        -0.726290
 C        -1.222918        -0.395166        -0.923594
 C        -2.050677         0.510565        -1.888309
 C        -0.604170         0.262325        -2.154437
 C         0.279044         1.388818        -1.598639
 C         0.267575         1.035505        -0.075407
 O        -0.826318         0.286274         0.257621
 C         1.489143         0.186451         0.507948
 O         2.598731         0.121223         0.179645
 H        -2.045083        -2.099197         0.189400
 H        -1.995752        -2.221746        -1.650076
 H        -0.582507        -2.443729        -0.685593
 H        -2.906250         0.090912        -2.412654
 H        -2.251143         1.534067        -1.497001
 H        -0.284164        -0.367309        -3.005825
 H         1.226063         1.496340        -2.048940
 H        -0.377506         2.295031        -1.437401
 H         0.286663         2.076647         0.488794
 H         1.201229        -0.241482         1.553755
