19
Iteration:  4083charge 0 multiplicity 1
 C        -2.214838        -1.846685        -0.984778
 C        -1.351769        -0.523477        -1.050286
 C        -1.973442         0.674235        -1.836771
 C        -0.601709         0.014411        -2.242260
 C         0.660807         0.781405        -1.737250
 C         0.364799         0.811493        -0.175878
 O        -0.630403        -0.114250         0.092679
 C         1.530320         0.700913         0.881594
 O         2.705768         0.894335         0.647221
 H        -2.084174        -2.336318        -1.972314
 H        -2.148372        -2.467174        -0.063604
 H        -3.352461        -1.443830        -1.019115
 H        -2.857339         0.421846        -2.413463
 H        -1.897407         1.559910        -1.255372
 H        -0.560716        -0.402433        -3.211266
 H         1.550097         0.162181        -1.955007
 H         0.797067         1.805299        -2.201235
 H         0.133157         1.829096         0.243786
 H         1.265998         0.528928         1.956936
