19
Iteration:  3738
 C        -2.217913        -1.758980        -1.013189
 C        -1.419366        -0.448089        -1.065524
 C        -1.920196         0.811516        -1.801477
 C        -0.651683         0.060414        -2.299754
 C         0.708578         0.526417        -1.626851
 C         0.395132         0.702501        -0.165315
 O        -0.688345        -0.238334         0.145928
 C         1.727591         0.464317         0.576040
 O         2.521032         1.327392         0.842367
 H        -3.048464        -1.634111        -0.365581
 H        -2.435077        -2.125537        -2.108107
 H        -1.677673        -2.584074        -0.595582
 H        -2.700246         0.657506        -2.496488
 H        -1.884229         1.686678        -1.167697
 H        -0.480393        -0.530967        -3.234777
 H         1.465615        -0.183056        -1.791605
 H         1.091170         1.501997        -2.028527
 H        -0.091116         1.647752         0.211207
 H         1.980127        -0.654077         0.727932
