19
Iteration:  3268
 C        -1.490282        -1.844643        -0.871322
 C        -1.261307        -0.432558        -0.966114
 C        -2.017941         0.546505        -1.903793
 C        -0.607066         0.190870        -2.104170
 C         0.443731         1.160310        -1.560633
 C         0.249494         1.030996        -0.023115
 O        -0.928882         0.279607         0.297726
 C         1.422988         0.211632         0.567705
 O         2.594761         0.400184         0.172241
 H        -0.810985        -2.556611        -1.373979
 H        -1.332712        -2.263210         0.219999
 H        -2.402657        -2.247866        -1.413981
 H        -2.902366         0.077235        -2.343282
 H        -2.134468         1.622426        -1.601482
 H        -0.330371        -0.637144        -2.780400
 H         1.436930         0.769502        -1.782519
 H         0.496419         2.145411        -1.939563
 H         0.260442         1.962209         0.700282
 H         1.187450        -0.611192         1.322637
