19
Iteration:  1074
 C        -1.451101        -1.920323        -0.743615
 C        -1.406492        -0.358760        -0.935166
 C        -2.158772         0.658314        -1.840906
 C        -0.635891         0.247779        -2.106358
 C         0.398729         1.132975        -1.532712
 C         0.320634         0.875465        -0.042988
 O        -0.968268         0.306815         0.165729
 C         1.611073         0.076250         0.501505
 O         2.683999         0.459756         0.180661
 H        -2.273381        -2.342966        -0.008277
 H        -1.411059        -2.386921        -1.721325
 H        -0.515967        -2.251115        -0.164710
 H        -2.813917         0.228199        -2.607146
 H        -2.438142         1.623077        -1.383157
 H        -0.584498        -0.252547        -3.070439
 H         1.382810         0.847309        -1.783872
 H         0.137303         2.166093        -1.923999
 H         0.485723         1.758909         0.502842
 H         1.439581        -0.702526         1.208484
