19
Iteration:  2872charge 0 multiplicity 1
 C        -1.322248        -1.880752        -0.827080
 C        -1.262190        -0.383593        -0.875761
 C        -2.124938         0.486102        -1.871974
 C        -0.593517         0.254143        -2.039567
 C         0.355125         1.235856        -1.595399
 C         0.335089         1.039856        -0.029858
 O        -0.924872         0.398633         0.301389
 C         1.405195         0.149246         0.488401
 O         2.578320         0.204785         0.135107
 H        -2.217509        -2.226561        -0.361498
 H        -1.702693        -2.165787        -1.889324
 H        -0.488987        -2.487137        -0.630715
 H        -2.815657        -0.118173        -2.449337
 H        -2.352328         1.489112        -1.570860
 H        -0.342034        -0.465349        -2.824620
 H         1.411762         1.179200        -1.942571
 H         0.062635         2.238236        -2.056719
 H         0.444178         2.035731         0.586617
 H         1.035286        -0.455981         1.364819
