19
Iteration:  3958
 C        -2.183766        -1.684019        -0.869921
 C        -1.349199        -0.430263        -1.018589
 C        -1.839281         0.645521        -1.942392
 C        -0.631110        -0.052707        -2.288691
 C         0.549561         0.723859        -1.854921
 C         0.315590         0.812047        -0.160279
 O        -0.610252        -0.124118         0.187574
 C         1.625980         0.443349         0.598247
 O         2.576888         1.094740         1.003695
 H        -3.315107        -1.544589        -1.129048
 H        -1.863736        -2.514533        -1.629189
 H        -2.012810        -1.989531         0.118774
 H        -2.708871         0.429035        -2.614938
 H        -1.761473         1.735542        -1.674763
 H        -0.549675        -0.715559        -3.141886
 H         1.482822         0.089057        -2.210688
 H         0.635560         1.720552        -2.402363
 H        -0.043147         1.887569        -0.172282
 H         1.831073        -0.623373         0.459196
