19
Iteration:  3967charge 0 multiplicity 1
 C        -2.186682        -1.722111        -0.924526
 C        -1.401585        -0.435481        -0.973908
 C        -1.961255         0.665754        -1.958403
 C        -0.591783        -0.039342        -2.247023
 C         0.632922         0.701469        -1.799417
 C         0.392465         0.874667        -0.226941
 O        -0.656722        -0.112379         0.192443
 C         1.654886         0.430596         0.573014
 O         2.578882         1.101348         0.971693
 H        -3.210570        -1.513732        -1.247159
 H        -1.630267        -2.541070        -1.571029
 H        -2.252906        -2.191628         0.067074
 H        -2.758731         0.367868        -2.605342
 H        -1.792693         1.672383        -1.698945
 H        -0.558130        -0.782790        -2.989262
 H         1.606364         0.061462        -1.895792
 H         0.654558         1.758693        -2.227716
 H         0.003863         1.837972        -0.016887
 H         1.729114        -0.697875         0.464713
