19
Iteration:  2810charge 0 multiplicity 1
 C        -1.635352        -1.888490        -0.693340
 C        -1.288655        -0.438711        -1.046613
 C        -2.101305         0.368600        -1.877097
 C        -0.574924         0.394864        -2.117902
 C         0.332096         1.352847        -1.518102
 C         0.363211         0.991023        -0.070424
 O        -0.827068         0.208426         0.239780
 C         1.486131         0.257715         0.552589
 O         2.678510         0.241569         0.130419
 H        -2.632661        -1.779115        -0.265546
 H        -1.628760        -2.469555        -1.578507
 H        -0.912581        -2.293088         0.101939
 H        -2.674119        -0.164719        -2.642183
 H        -2.640651         1.231126        -1.545374
 H        -0.078824        -0.059682        -3.010017
 H         1.356772         1.322271        -2.012120
 H        -0.025081         2.415554        -1.619874
 H         0.444046         1.921037         0.605593
 H         1.201725        -0.297595         1.478431
