19
Iteration:  2282
 C        -1.625269        -1.898275        -0.730374
 C        -1.256836        -0.478945        -0.913607
 C        -2.079813         0.468795        -1.811210
 C        -0.634600         0.291631        -2.151931
 C         0.357300         1.391636        -1.607195
 C         0.290850         1.050116        -0.106249
 O        -0.849686         0.222050         0.246987
 C         1.495776         0.192606         0.439790
 O         2.739824         0.290393         0.245001
 H        -2.561243        -2.069759        -0.456956
 H        -1.559698        -2.403726        -1.677870
 H        -1.030467        -2.482721         0.040713
 H        -2.733847        -0.123988        -2.412301
 H        -2.367189         1.428671        -1.370825
 H        -0.255299        -0.116474        -3.120557
 H         1.433839         1.281622        -2.060299
 H         0.035733         2.473774        -1.625575
 H         0.156745         1.860341         0.666184
 H         1.079757        -0.771064         0.906036
