19
Iteration:  4843
 C        -1.861068        -1.852146        -0.892490
 C        -1.320757        -0.504590        -1.040551
 C        -1.858136         0.446742        -2.068053
 C        -0.386559        -0.069419        -2.163526
 C         0.641901         0.972118        -1.565901
 C         0.244081         0.920985        -0.102928
 O        -0.957738         0.351148         0.114256
 C         1.407660         0.435678         0.763224
 O         2.549824         0.696856         0.589011
 H        -2.962852        -1.780503        -0.555040
 H        -1.628057        -2.334665        -1.862263
 H        -1.118165        -2.395193        -0.322156
 H        -2.495773        -0.021421        -2.772802
 H        -2.120188         1.474314        -1.909238
 H        -0.067211        -0.703463        -2.985608
 H         1.648348         0.443609        -1.720311
 H         0.591620         1.927073        -2.072205
 H         0.281720         1.961778         0.257418
 H         0.990224        -0.033709         1.734526
