19
Iteration:  1149
 C        -1.687347        -1.887704        -0.784468
 C        -1.268072        -0.468098        -0.962827
 C        -2.009171         0.511264        -1.777449
 C        -0.566916         0.171595        -2.119814
 C         0.356709         1.357640        -1.602156
 C         0.301276         1.011111        -0.082842
 O        -0.862167         0.263265         0.280686
 C         1.560364         0.105048         0.354663
 O         2.676902         0.423581         0.300408
 H        -2.243782        -1.936591         0.239913
 H        -2.350027        -2.200248        -1.565762
 H        -0.824709        -2.576115        -0.828365
 H        -2.788452        -0.012076        -2.357242
 H        -2.418947         1.396599        -1.328452
 H        -0.417915        -0.413143        -3.031775
 H         1.257526         1.326105        -2.099713
 H        -0.089900         2.253335        -1.747080
 H         0.471513         1.951897         0.557142
 H         1.138410        -0.899155         0.756998
