19
Iteration:  4336charge 0 multiplicity 1
 C        -2.019213        -1.756994        -0.729725
 C        -1.274314        -0.472460        -1.057942
 C        -1.993310         0.578071        -1.872545
 C        -0.646514         0.058563        -2.312249
 C         0.521814         0.872525        -1.856684
 C         0.503104         0.956043        -0.284677
 O        -0.587182         0.085181         0.124704
 C         1.645595         0.241457         0.363931
 O         2.401688         0.896904         1.113914
 H        -2.015680        -2.521652        -1.392933
 H        -1.713200        -2.223821         0.224661
 H        -3.084647        -1.528481        -0.445510
 H        -2.823363         0.092559        -2.409642
 H        -2.168967         1.629014        -1.597077
 H        -0.685428        -0.746954        -3.071589
 H         1.451427         0.380253        -2.201385
 H         0.419453         1.914619        -2.323209
 H         0.248177         1.944438         0.347383
 H         1.509959        -0.879142         0.262759
