19
Iteration:   391
 C        -1.470705        -1.846741        -0.748789
 C        -1.364560        -0.321991        -0.895336
 C        -2.091144         0.477953        -1.927531
 C        -0.582099         0.215542        -2.069807
 C         0.306149         1.326438        -1.494476
 C         0.308899         1.034661        -0.026403
 O        -0.948217         0.360441         0.291297
 C         1.518780         0.100163         0.403672
 O         2.703944         0.182388         0.122630
 H        -2.029268        -2.484590         0.077543
 H        -1.718782        -2.305502        -1.737984
 H        -0.335646        -2.120339        -0.664100
 H        -2.732165        -0.011090        -2.599103
 H        -2.556136         1.339474        -1.653816
 H        -0.152026        -0.407206        -2.878417
 H         1.253128         1.343109        -1.851025
 H        -0.100526         2.288069        -1.800931
 H         0.495651         1.918811         0.589457
 H         1.279252        -0.590577         1.190986
