19
Iteration:   158charge 0 multiplicity 1
 C        -1.527304        -1.818432        -0.913695
 C        -1.317814        -0.373470        -0.997702
 C        -2.112226         0.637811        -1.779596
 C        -0.711071         0.256819        -2.146775
 C         0.411662         1.019490        -1.512385
 C         0.265355         1.028469         0.009721
 O        -0.859594         0.072686         0.245130
 C         1.645611         0.431829         0.675426
 O         2.650228         0.270476         0.056003
 H        -2.331811        -1.908971        -0.062295
 H        -2.171698        -2.340686        -1.756030
 H        -0.555019        -2.402239        -0.670222
 H        -2.985624         0.222099        -2.342268
 H        -2.357102         1.630307        -1.304696
 H        -0.435066        -0.262567        -3.062790
 H         1.322846         0.643435        -1.886225
 H         0.430170         2.080843        -1.863915
 H         0.085621         1.990737         0.519887
 H         1.502761         0.145171         1.775500
