19
Iteration:  4834charge 0 multiplicity 1
 C        -1.885864        -1.857943        -0.925163
 C        -1.256913        -0.459296        -1.006572
 C        -1.876008         0.383604        -2.051687
 C        -0.371138         0.011545        -2.170150
 C         0.660935         0.917686        -1.661033
 C         0.308492         0.953064        -0.067314
 O        -0.987310         0.353113         0.160783
 C         1.355959         0.453796         0.786191
 O         2.566476         0.702923         0.577386
 H        -3.018467        -2.147943        -0.965237
 H        -1.632301        -2.345955        -1.798241
 H        -1.529835        -2.584688        -0.105549
 H        -2.515415        -0.040981        -2.797559
 H        -2.115865         1.421040        -1.791586
 H        -0.219411        -0.790264        -2.964727
 H         1.686136         0.528438        -1.850669
 H         0.794463         1.939627        -2.081766
 H         0.143838         2.077000         0.297861
 H         0.917240        -0.278566         1.599705
