19
Iteration:  1836
 C        -1.408529        -1.914277        -0.802558
 C        -1.315698        -0.332583        -0.904930
 C        -2.032112         0.477771        -1.902180
 C        -0.547122         0.215427        -2.026605
 C         0.397849         1.258172        -1.437060
 C         0.286137         1.038715         0.046896
 O        -1.029618         0.348999         0.266648
 C         1.497486         0.187133         0.504826
 O         2.535970         0.243038        -0.067027
 H        -1.794340        -2.216109         0.162644
 H        -2.028936        -2.469366        -1.470634
 H        -0.406976        -2.221869        -0.770276
 H        -2.447214        -0.064619        -2.767914
 H        -2.273521         1.485183        -1.615687
 H        -0.039085        -0.342796        -2.794241
 H         1.471269         1.016821        -1.703854
 H         0.279619         2.387941        -1.631621
 H         0.126201         1.915634         0.626097
 H         1.463769        -0.638419         1.215062
