19
Iteration:  3395charge 0 multiplicity 1
 C        -1.779242        -1.870707        -0.916372
 C        -1.298519        -0.434013        -1.014804
 C        -2.022609         0.593650        -1.918261
 C        -0.486840         0.094343        -2.089106
 C         0.552993         1.070135        -1.528336
 C         0.296820         0.922224         0.009918
 O        -0.872043         0.147257         0.317416
 C         1.486582         0.307909         0.561900
 O         2.592723         0.635545         0.228649
 H        -2.826149        -1.951820        -1.182212
 H        -1.253801        -2.496425        -1.528393
 H        -1.583699        -2.303635         0.104192
 H        -2.670797         0.341039        -2.745286
 H        -2.260509         1.498005        -1.360360
 H        -0.391955        -0.612918        -2.923920
 H         1.594422         0.786270        -1.760088
 H         0.407988         2.135561        -1.914461
 H         0.210064         1.967948         0.331309
 H         1.258224        -0.598615         1.179613
