19
Iteration:  3828
 C        -2.208006        -1.678680        -0.875583
 C        -1.410850        -0.442132        -1.071320
 C        -1.970040         0.787103        -1.739409
 C        -0.621699         0.028943        -2.314847
 C         0.727160         0.469819        -1.778427
 C         0.545082         0.694803        -0.325194
 O        -0.573282        -0.199077        -0.003212
 C         1.737443         0.403754         0.605657
 O         2.269227         1.346471         1.080329
 H        -1.923218        -1.978883         0.143181
 H        -3.301643        -1.686533        -1.043353
 H        -1.922313        -2.459348        -1.452495
 H        -2.818162         0.644807        -2.432082
 H        -1.775948         1.750657        -1.293230
 H        -0.844716        -0.171325        -3.315269
 H         1.218494        -0.480989        -1.789927
 H         1.267567         1.203989        -2.324865
 H         0.294209         1.785275        -0.238957
 H         2.087472        -0.625596         0.715839
