19
Iteration:   342charge 0 multiplicity 1
 C        -1.510733        -1.929016        -0.602322
 C        -1.289843        -0.421271        -0.967706
 C        -2.041631         0.447887        -1.843770
 C        -0.547733         0.358373        -2.106793
 C         0.370184         1.400335        -1.472187
 C         0.313748         0.941312        -0.065193
 O        -0.902944         0.298706         0.177721
 C         1.436386         0.152211         0.404254
 O         2.625610         0.218233         0.103928
 H        -2.126968        -1.860758         0.208222
 H        -2.045121        -2.586586        -1.282800
 H        -0.676071        -2.442651        -0.293423
 H        -2.747767         0.048341        -2.673992
 H        -2.487331         1.560400        -1.600059
 H        -0.287824         0.056188        -3.111146
 H         1.437773         1.447221        -1.949096
 H         0.025635         2.439190        -1.587733
 H         0.427139         1.755604         0.705577
 H         1.156886        -0.604522         1.106125
