19
Iteration:  1415charge 0 multiplicity 1
 C        -1.646853        -1.869964        -0.799449
 C        -1.333074        -0.374977        -0.990444
 C        -2.186722         0.499972        -1.936266
 C        -0.643906         0.275996        -2.146584
 C         0.370142         1.205945        -1.527231
 C         0.341232         0.943629        -0.023129
 O        -0.844625         0.146002         0.249922
 C         1.664617         0.373235         0.597185
 O         2.720115         0.325403         0.166260
 H        -2.569853        -2.079023        -0.380316
 H        -1.679144        -2.375924        -1.805345
 H        -0.936714        -2.312175        -0.055931
 H        -3.038459         0.066843        -2.502681
 H        -2.515684         1.396303        -1.395781
 H        -0.199962        -0.388760        -2.904997
 H         1.341579         1.119959        -1.913581
 H         0.132910         2.236994        -1.699508
 H         0.195693         1.830145         0.567064
 H         1.485637        -0.198485         1.529229
