19
Iteration:  2235charge 0 multiplicity 1
 C        -1.446166        -1.780550        -0.785447
 C        -1.387393        -0.308286        -0.884968
 C        -2.131016         0.458196        -1.918781
 C        -0.622367         0.303063        -2.126013
 C         0.333518         1.218375        -1.559922
 C         0.368646         0.841572         0.039976
 O        -0.970140         0.360707         0.275117
 C         1.578176        -0.023763         0.364067
 O         2.662396         0.433421         0.202760
 H        -2.140064        -2.325881        -0.035770
 H        -1.659362        -2.349803        -1.674696
 H        -0.535792        -2.172906        -0.350880
 H        -2.630886        -0.167883        -2.673423
 H        -2.505221         1.431452        -1.635870
 H        -0.254609        -0.503947        -2.753929
 H         1.373455         1.070269        -1.819128
 H         0.180913         2.323800        -1.586035
 H         0.379580         1.950756         0.554323
 H         1.391729        -0.968906         0.972500
