19
Iteration:   961charge 0 multiplicity 1
 C        -1.663174        -1.863311        -0.809070
 C        -1.260760        -0.372489        -0.959705
 C        -2.119176         0.433250        -1.901199
 C        -0.607200         0.257015        -2.075296
 C         0.408438         1.287583        -1.513858
 C         0.344985         1.007457         0.037337
 O        -0.794792         0.189938         0.216785
 C         1.530855         0.299868         0.608743
 O         2.591091         0.302470         0.048948
 H        -2.413065        -1.986413         0.067759
 H        -2.058753        -2.405644        -1.768177
 H        -0.791255        -2.495274        -0.529522
 H        -2.709689        -0.097079        -2.655601
 H        -2.415398         1.452089        -1.676117
 H        -0.290070        -0.255779        -3.022305
 H         1.390240         0.907954        -1.702069
 H         0.261659         2.269957        -1.801669
 H         0.275075         1.817130         0.704589
 H         1.407671        -0.191267         1.672800
