19
Iteration:   696
 C        -1.486138        -1.946451        -0.726595
 C        -1.319618        -0.392167        -0.889445
 C        -2.023298         0.428511        -1.918694
 C        -0.540113         0.279031        -2.067903
 C         0.405002         1.401201        -1.488714
 C         0.339882         0.972420         0.069871
 O        -1.022854         0.409634         0.305437
 C         1.511305         0.104565         0.448339
 O         2.599199         0.232076        -0.048709
 H        -2.291992        -2.055388        -0.038055
 H        -1.862579        -2.150207        -1.667693
 H        -0.649394        -2.627187        -0.528291
 H        -2.621524         0.053635        -2.741946
 H        -2.462219         1.376270        -1.630140
 H        -0.182061        -0.470096        -2.828010
 H         1.470081         1.186992        -1.934252
 H         0.117108         2.495714        -1.731000
 H         0.302663         1.830344         0.815864
 H         1.312322        -0.584169         1.240638
