19
Iteration:  3075charge 0 multiplicity 1
 C        -1.361536        -1.880999        -0.829817
 C        -1.200244        -0.421042        -0.888796
 C        -2.051788         0.313859        -1.842819
 C        -0.578894         0.300363        -1.987043
 C         0.223076         1.495610        -1.537783
 C         0.377889         1.110309        -0.073655
 O        -0.866154         0.444850         0.274627
 C         1.388969         0.133907         0.488138
 O         2.558711         0.005443         0.065647
 H        -2.453172        -1.998050        -1.070932
 H        -0.875120        -2.315003        -1.573806
 H        -1.171511        -2.406814         0.037031
 H        -2.690672        -0.269126        -2.580579
 H        -2.527930         1.269980        -1.507449
 H        -0.334451        -0.366119        -2.863767
 H         1.195806         1.499278        -2.065607
 H        -0.324225         2.484880        -1.640104
 H         0.542376         2.069833         0.625066
 H         0.993701        -0.316098         1.446437
