19
Iteration:  2646charge 0 multiplicity 1
 C        -1.528602        -1.928132        -0.834063
 C        -1.359249        -0.380775        -0.913274
 C        -2.215437         0.539235        -1.790141
 C        -0.745508         0.292320        -2.125447
 C         0.450755         1.104870        -1.581374
 C         0.359761         0.898610        -0.073822
 O        -0.895621         0.358499         0.236213
 C         1.582474         0.154259         0.502500
 O         2.722757         0.441619         0.265866
 H        -2.537102        -2.304923        -0.587027
 H        -1.311500        -2.309922        -1.951222
 H        -0.614345        -2.527936        -0.244291
 H        -2.874411         0.306599        -2.584895
 H        -2.542401         1.475640        -1.373019
 H        -0.576109        -0.267135        -3.043012
 H         1.396701         0.828709        -2.001514
 H         0.315066         2.155776        -1.792825
 H         0.646165         1.927522         0.398084
 H         1.334621        -0.756201         1.131720
