19
Iteration:  3829charge 0 multiplicity 1
 C        -2.204237        -1.677201        -0.881955
 C        -1.405783        -0.435268        -1.071529
 C        -1.963637         0.783847        -1.727198
 C        -0.625159         0.018753        -2.311527
 C         0.720090         0.469726        -1.784349
 C         0.543802         0.708444        -0.326765
 O        -0.582066        -0.194377        -0.002767
 C         1.740665         0.398946         0.608248
 O         2.262708         1.343847         1.076528
 H        -1.918969        -2.000294         0.167772
 H        -3.257395        -1.652746        -1.063746
 H        -1.898945        -2.466917        -1.498508
 H        -2.832585         0.640025        -2.436319
 H        -1.776536         1.774050        -1.274688
 H        -0.860058        -0.188213        -3.311344
 H         1.265264        -0.517841        -1.750319
 H         1.285104         1.183372        -2.325543
 H         0.323812         1.762316        -0.238992
 H         2.115698        -0.628003         0.705575
