19
Iteration:   285
 C        -1.543806        -1.848842        -0.863259
 C        -1.352507        -0.354814        -0.863126
 C        -2.133208         0.401742        -1.981535
 C        -0.597376         0.242373        -1.995175
 C         0.428533         1.305428        -1.492689
 C         0.341840         0.955336         0.026135
 O        -0.942340         0.366556         0.300875
 C         1.561217         0.118663         0.545223
 O         2.655689         0.308116        -0.012022
 H        -2.434814        -1.989465        -0.350705
 H        -1.664658        -2.125031        -1.912893
 H        -0.814135        -2.408232        -0.371160
 H        -2.734940        -0.233056        -2.610814
 H        -2.527663         1.217960        -1.406192
 H        -0.248966        -0.407602        -2.818018
 H         1.499018         0.991691        -1.881382
 H         0.122578         2.347377        -1.793963
 H         0.490344         1.834459         0.711682
 H         1.443552        -0.371016         1.491755
