19
Iteration:  4880charge 0 multiplicity 1
 C        -1.760777        -1.799126        -0.714971
 C        -1.368176        -0.394474        -1.128815
 C        -1.834719         0.467740        -2.332139
 C        -0.427991        -0.004345        -2.224806
 C         0.565002         0.992274        -1.583871
 C         0.198368         0.989898        -0.091918
 O        -0.889511         0.175716         0.183957
 C         1.385363         0.413622         0.796028
 O         2.551900         0.608296         0.621851
 H        -2.013826        -1.840558         0.387292
 H        -2.654724        -2.227369        -1.167469
 H        -0.836323        -2.491399        -0.703786
 H        -2.487234        -0.193666        -2.966786
 H        -2.018991         1.561426        -2.337680
 H         0.037109        -0.547690        -3.111622
 H         1.590054         0.723953        -1.515547
 H         0.675749         2.017899        -2.058430
 H        -0.066979         2.065142         0.337014
 H         1.090262        -0.107619         1.807228
