19
Iteration:  1891
 C        -1.575600        -1.893264        -0.679323
 C        -1.222745        -0.417825        -0.951496
 C        -2.082585         0.440772        -2.011902
 C        -0.576182         0.259586        -2.150365
 C         0.250971         1.422251        -1.463110
 C         0.317678         1.054004         0.035036
 O        -0.867436         0.280420         0.256152
 C         1.578608         0.196706         0.471214
 O         2.661403         0.187760         0.102107
 H        -2.554258        -1.957485        -0.123968
 H        -1.582549        -2.427302        -1.642317
 H        -0.771371        -2.494151        -0.167491
 H        -2.737262        -0.051208        -2.748775
 H        -2.600498         1.279435        -1.528985
 H        -0.166297        -0.341103        -2.959176
 H         1.303473         1.426453        -1.861406
 H        -0.355492         2.418472        -1.593937
 H         0.198519         1.838195         0.720288
 H         1.289727        -0.444273         1.358073
