19
Iteration:   252charge 0 multiplicity 1
 C        -1.574649        -1.894453        -0.670090
 C        -1.294040        -0.430605        -1.005809
 C        -2.059055         0.562370        -1.919214
 C        -0.577819         0.305116        -2.094719
 C         0.361267         1.336980        -1.492223
 C         0.290299         0.974502         0.002937
 O        -0.876949         0.173418         0.216458
 C         1.539561         0.206584         0.489414
 O         2.652527         0.259754         0.055160
 H        -2.442703        -1.899300        -0.116263
 H        -1.848121        -2.521572        -1.496081
 H        -0.831083        -2.334808        -0.093435
 H        -2.910511         0.283283        -2.515516
 H        -2.360134         1.332745        -1.237211
 H        -0.254392        -0.184222        -3.034623
 H         1.507046         1.229536        -1.744369
 H         0.097051         2.400288        -1.785937
 H         0.091534         1.847468         0.664077
 H         1.321800        -0.330020         1.469097
