19
Iteration:  2806charge 0 multiplicity 1
 C        -1.633533        -1.902207        -0.687980
 C        -1.284560        -0.432397        -0.998757
 C        -2.121482         0.413373        -1.871142
 C        -0.525356         0.339219        -2.129284
 C         0.368182         1.354898        -1.530515
 C         0.336126         1.012315        -0.026624
 O        -0.846122         0.206119         0.238880
 C         1.520187         0.252900         0.518852
 O         2.654025         0.254121         0.127073
 H        -2.639785        -1.884227        -0.315165
 H        -1.738718        -2.511704        -1.660207
 H        -0.974435        -2.365814        -0.042805
 H        -2.599715        -0.229681        -2.619961
 H        -2.690785         1.293725        -1.541494
 H        -0.066658        -0.032298        -3.024564
 H         1.305277         1.394041        -2.149491
 H         0.024754         2.474332        -1.669445
 H         0.328275         1.817085         0.617767
 H         1.218983        -0.294859         1.443639
