19
Iteration:  2344
 C        -1.622479        -1.914107        -0.899154
 C        -1.396440        -0.410682        -0.964082
 C        -2.042967         0.524504        -1.918348
 C        -0.579543         0.170985        -2.033003
 C         0.387991         1.161466        -1.465424
 C         0.323313         0.947089         0.098700
 O        -0.961817         0.249929         0.294263
 C         1.621703         0.309115         0.525585
 O         2.683055         0.402501         0.023669
 H        -2.083372        -1.903536         0.233317
 H        -2.230435        -2.283065        -1.703258
 H        -0.597271        -2.344577        -0.971369
 H        -2.809763         0.418364        -2.645083
 H        -2.188123         1.527222        -1.519087
 H        -0.154307        -0.507463        -2.814062
 H         1.346522         0.950904        -1.851966
 H         0.332634         2.206901        -1.672166
 H         0.064068         1.878800         0.474573
 H         1.481430        -0.357842         1.438795
