19
Iteration:  4571charge 0 multiplicity 1
 C        -2.147693        -1.683898        -0.953812
 C        -1.361704        -0.448936        -1.092349
 C        -1.956126         0.793419        -1.679471
 C        -0.623891         0.138200        -2.282334
 C         0.805664         0.431201        -1.687349
 C         0.373184         0.723273        -0.109803
 O        -0.554335        -0.299305         0.053585
 C         1.531513         0.490692         0.655253
 O         2.442085         1.283525         0.712715
 H        -3.186180        -1.295803        -0.586062
 H        -2.326677        -1.955605        -1.975857
 H        -1.499872        -2.411726        -0.497564
 H        -2.771148         0.632317        -2.359202
 H        -2.039728         1.697521        -1.078808
 H        -0.771444        -0.308309        -3.293334
 H         1.497691        -0.494698        -1.758692
 H         1.240024         1.347911        -2.071865
 H        -0.249140         1.662368         0.120132
 H         1.466395        -0.450780         1.242040
