19
Iteration:   570
 C        -1.434412        -1.906296        -0.731701
 C        -1.447479        -0.411199        -0.960299
 C        -2.164848         0.601000        -1.932569
 C        -0.608959         0.296873        -2.097592
 C         0.357983         1.335055        -1.551744
 C         0.303820         0.950252        -0.006206
 O        -0.828147         0.218707         0.234432
 C         1.568235         0.301005         0.638813
 O         2.635791         0.138810         0.028788
 H        -2.319002        -2.010380         0.011646
 H        -1.688533        -2.786833        -1.493535
 H        -0.464688        -2.078902        -0.183059
 H        -2.806188         0.266474        -2.801769
 H        -2.322472         1.613703        -1.438658
 H        -0.277943        -0.429967        -2.849605
 H         1.364870         1.184334        -1.887146
 H         0.035156         2.283170        -1.873880
 H         0.212868         1.906863         0.530183
 H         1.452780        -0.189581         1.652050
