19
Iteration:  3415charge 0 multiplicity 1
 C        -1.780036        -1.897361        -0.861640
 C        -1.415501        -0.436731        -1.000584
 C        -1.961671         0.590363        -1.972915
 C        -0.590856         0.198844        -2.135264
 C         0.504336         1.011437        -1.470351
 C         0.292848         0.930893         0.052385
 O        -0.925150         0.131583         0.168078
 C         1.606888         0.261790         0.641286
 O         2.682491         0.677522         0.243187
 H        -2.877519        -2.126407        -0.672331
 H        -1.533029        -2.488444        -1.695019
 H        -1.216168        -2.359732        -0.013609
 H        -2.636672         0.168529        -2.672769
 H        -2.143063         1.606759        -1.690588
 H        -0.237847        -0.295199        -3.010928
 H         1.448302         0.621941        -1.755920
 H         0.496375         1.985530        -1.919299
 H         0.104487         2.010311         0.555213
 H         1.607283        -0.485755         1.452058
