19
Iteration:  3037charge 0 multiplicity 1
 C        -1.308391        -1.880836        -0.632008
 C        -1.276010        -0.413836        -0.956268
 C        -2.078036         0.522293        -1.980909
 C        -0.619483         0.327818        -2.024857
 C         0.359592         1.376511        -1.445346
 C         0.269776         1.095886         0.041999
 O        -0.952462         0.281185         0.237120
 C         1.451908         0.173389         0.531961
 O         2.521688         0.055984        -0.095344
 H        -2.251290        -2.357229        -0.846192
 H        -0.619163        -2.467003        -1.451718
 H        -0.884979        -1.934424         0.428040
 H        -2.474691         0.120516        -2.864498
 H        -2.524899         1.333348        -1.440065
 H        -0.139157        -0.231445        -2.814495
 H         1.360774         1.151353        -1.861509
 H         0.151204         2.348657        -1.890025
 H         0.247232         1.987363         0.675389
 H         1.425018        -0.280799         1.563335
