19
Iteration:  1771charge 0 multiplicity 1
 C        -1.413755        -1.906136        -0.742337
 C        -1.124666        -0.461179        -0.915452
 C        -2.116208         0.398721        -1.848355
 C        -0.615660         0.342644        -2.113210
 C         0.267193         1.494490        -1.534407
 C         0.327924         1.111477        -0.085879
 O        -0.844371         0.258622         0.265908
 C         1.432094         0.278270         0.456988
 O         2.593656         0.019699         0.138146
 H        -2.557760        -1.957943        -0.356960
 H        -1.531329        -2.330335        -1.751479
 H        -0.708260        -2.373609        -0.120410
 H        -2.904725        -0.032421        -2.509648
 H        -2.407182         1.388628        -1.478191
 H        -0.199971        -0.401100        -2.844539
 H         1.273187         1.326081        -1.997449
 H        -0.188773         2.530690        -1.668072
 H         0.240710         2.141152         0.624720
 H         0.921652        -0.366644         1.217161
