19
Iteration:   987
 C        -1.686269        -1.858656        -0.709081
 C        -1.292311        -0.369354        -1.023349
 C        -2.122234         0.474082        -2.011048
 C        -0.631233         0.254995        -2.189184
 C         0.272617         1.325412        -1.521036
 C         0.315293         0.915672        -0.015584
 O        -0.886596         0.143459         0.267092
 C         1.637168         0.400205         0.633985
 O         2.835057         0.222154         0.152634
 H        -2.360181        -1.960181         0.196645
 H        -2.195410        -2.355756        -1.500465
 H        -0.787372        -2.481053        -0.623358
 H        -2.652229        -0.006720        -2.811776
 H        -2.569121         1.394576        -1.660048
 H        -0.419445        -0.207522        -3.126806
 H         1.342277         1.408690        -1.798365
 H        -0.251953         2.439312        -1.608335
 H         0.314913         1.867179         0.777403
 H         1.499020        -0.178181         1.648759
