19
Iteration:  1402charge 0 multiplicity 1
 C        -1.697919        -1.897197        -0.777214
 C        -1.378535        -0.440931        -1.009608
 C        -2.152427         0.461921        -1.875965
 C        -0.658569         0.305495        -2.135601
 C         0.360133         1.351563        -1.571341
 C         0.342076         0.961879        -0.025247
 O        -0.849109         0.111627         0.220471
 C         1.617640         0.304644         0.666743
 O         2.829768         0.324058         0.157576
 H        -2.680219        -1.848401        -0.296649
 H        -1.727909        -2.511792        -1.632950
 H        -0.969273        -2.281832        -0.097908
 H        -2.714734        -0.170719        -2.647671
 H        -2.464830         1.548406        -1.793793
 H        -0.414527        -0.175589        -3.071858
 H         1.315488         1.006709        -2.035526
 H         0.175334         2.452309        -1.733466
 H         0.224424         1.831802         0.465718
 H         1.388134         0.088965         1.723566
