19
Iteration:  2445
 C        -1.638568        -1.873383        -0.904622
 C        -1.346791        -0.443941        -0.981744
 C        -2.198122         0.477840        -1.765190
 C        -0.737130         0.270433        -2.157095
 C         0.338457         1.227230        -1.636088
 C         0.389700         0.995027        -0.109486
 O        -0.737570         0.202702         0.240488
 C         1.584998         0.310656         0.651724
 O         2.753007         0.313278         0.266959
 H        -2.625061        -1.917876        -0.320856
 H        -1.635192        -2.368513        -1.918763
 H        -0.804015        -2.155264        -0.138942
 H        -2.834808        -0.085429        -2.442857
 H        -2.426896         1.476598        -1.488827
 H        -0.566324        -0.198375        -3.098402
 H         1.337836         0.903713        -1.933225
 H         0.089167         2.206715        -1.914481
 H         0.263954         1.869578         0.530149
 H         1.256092        -0.070706         1.628260
