19
Iteration:  3264charge 0 multiplicity 1
 C        -1.498199        -1.876319        -0.857992
 C        -1.279352        -0.385387        -0.950276
 C        -2.042305         0.522176        -1.903661
 C        -0.592530         0.187608        -2.132320
 C         0.451172         1.174395        -1.522948
 C         0.235782         1.052494        -0.027918
 O        -0.908695         0.282406         0.272911
 C         1.455129         0.159885         0.561728
 O         2.583251         0.404615         0.166082
 H        -0.715038        -2.484715        -1.296010
 H        -1.469422        -2.165761         0.108432
 H        -2.416043        -2.270679        -1.323463
 H        -2.874927         0.101868        -2.439292
 H        -2.099269         1.542842        -1.622410
 H        -0.281506        -0.592254        -2.777066
 H         1.451177         0.730135        -1.701773
 H         0.436465         2.225140        -1.933656
 H         0.147383         1.907554         0.727627
 H         1.269345        -0.511395         1.422673
