19
Iteration:  4980
 C        -1.555758        -1.799647        -0.661232
 C        -1.287045        -0.417247        -1.165716
 C        -1.878056         0.374237        -2.321222
 C        -0.356700         0.041399        -2.179489
 C         0.645688         1.002916        -1.531264
 C         0.196759         1.060907        -0.100938
 O        -1.029397         0.316829         0.135126
 C         1.285255         0.485147         0.825301
 O         2.437156         0.405654         0.537606
 H        -0.730551        -2.446239        -0.429623
 H        -2.014957        -1.837533         0.355375
 H        -2.352742        -2.289071        -1.295601
 H        -2.340307        -0.239039        -3.108158
 H        -2.183047         1.410586        -2.070642
 H         0.041050        -0.585880        -2.897765
 H         1.639848         0.591112        -1.592154
 H         0.758483         2.051769        -1.953126
 H         0.011208         2.148083         0.178331
 H         1.035671         0.154422         1.857012
