19
Iteration:  3927charge 0 multiplicity 1
 C        -2.227451        -1.705662        -0.705250
 C        -1.399983        -0.481898        -1.099246
 C        -1.920869         0.663476        -1.893705
 C        -0.599001         0.017613        -2.259376
 C         0.712086         0.746300        -1.808490
 C         0.451057         0.751242        -0.297416
 O        -0.529694        -0.145452         0.014832
 C         1.619444         0.354384         0.588536
 O         2.375667         1.172396         1.029881
 H        -3.255545        -1.374484        -0.252593
 H        -2.424601        -2.355095        -1.547397
 H        -1.790936        -2.239686         0.074640
 H        -2.773283         0.680896        -2.642096
 H        -1.928798         1.724313        -1.468345
 H        -0.475228        -0.600935        -3.165257
 H         1.570376         0.212993        -2.169465
 H         0.901369         1.755888        -2.176042
 H         0.178273         1.882125        -0.009845
 H         1.850613        -0.767281         0.551549
