19
Iteration:  1063charge 0 multiplicity 1
 C        -1.465840        -1.904948        -0.779313
 C        -1.416712        -0.424613        -0.996142
 C        -2.157227         0.563115        -1.808766
 C        -0.661240         0.239004        -2.052260
 C         0.545998         1.098920        -1.542199
 C         0.305775         0.997807         0.037034
 O        -0.963955         0.316157         0.237889
 C         1.499415         0.120738         0.444942
 O         2.700580         0.443607         0.142169
 H        -2.425490        -2.242910        -0.181858
 H        -1.620429        -2.453879        -1.706730
 H        -0.454662        -2.160307        -0.334137
 H        -2.795502         0.303981        -2.655244
 H        -2.353348         1.555521        -1.386086
 H        -0.565525        -0.199102        -3.040634
 H         1.482245         0.864888        -1.990316
 H         0.441853         2.234071        -1.783791
 H         0.318214         1.940440         0.552931
 H         1.383229        -0.788835         0.997703
