19
Iteration:  2124
 C        -1.496390        -1.887133        -0.820033
 C        -1.404523        -0.356438        -0.927458
 C        -2.079665         0.479423        -1.950741
 C        -0.619431         0.295737        -2.092525
 C         0.390011         1.258259        -1.535479
 C         0.316492         0.893498         0.039239
 O        -0.979165         0.267941         0.266307
 C         1.588543         0.204103         0.605931
 O         2.706390         0.316344         0.007702
 H        -2.444494        -2.006742        -0.150820
 H        -1.519519        -2.447086        -1.775962
 H        -0.681863        -2.121748        -0.260630
 H        -2.828657        -0.105685        -2.490107
 H        -2.497346         1.392839        -1.472429
 H        -0.306142        -0.291206        -2.905191
 H         1.387551         1.018271        -1.704858
 H         0.051525         2.314446        -1.606791
 H         0.381830         1.901005         0.637288
 H         1.482262        -0.167354         1.698334
