19
Iteration:  2599
 C        -1.609231        -1.870115        -0.742912
 C        -1.406035        -0.362958        -0.939517
 C        -2.027151         0.578929        -1.922713
 C        -0.649224         0.287589        -2.109641
 C         0.367587         1.162003        -1.547475
 C         0.330172         0.929316         0.005463
 O        -0.841332         0.139627         0.234730
 C         1.540145         0.143769         0.467449
 O         2.710121         0.506392         0.189266
 H        -2.233294        -2.040238         0.166119
 H        -2.159430        -2.482616        -1.587747
 H        -0.621058        -2.438501        -0.654417
 H        -2.864492         0.248718        -2.562996
 H        -2.357117         1.519092        -1.450605
 H        -0.437718        -0.285170        -3.027828
 H         1.340044         0.880635        -1.997972
 H         0.365426         2.211264        -1.663866
 H         0.238230         1.933377         0.631920
 H         1.280245        -0.814314         1.025697
