19
Iteration:   104charge 0 multiplicity 1
 C        -1.822399        -1.822518        -0.901747
 C        -1.287548        -0.475084        -0.995968
 C        -2.092110         0.526558        -1.588471
 C        -0.704154         0.264261        -2.266154
 C         0.420966         1.156666        -1.683353
 C         0.264815         1.038394        -0.111540
 O        -0.677721         0.041778         0.230346
 C         1.598106         0.433280         0.635971
 O         2.739059         0.343819         0.279869
 H        -2.706941        -1.998742        -0.164971
 H        -2.105272        -2.329390        -1.934818
 H        -1.059789        -2.613176        -0.522352
 H        -2.966372         0.403962        -2.290629
 H        -2.161871         1.500608        -1.060942
 H        -0.603278        -0.273561        -3.219268
 H         1.475891         0.845384        -1.943123
 H         0.287292         2.371177        -1.993316
 H        -0.004794         2.011378         0.415170
 H         1.348459        -0.066679         1.676746
