19
Iteration:  1971charge 0 multiplicity 1
 C        -1.444666        -1.881606        -0.828094
 C        -1.294623        -0.470701        -0.898758
 C        -2.044685         0.513087        -1.802888
 C        -0.514942         0.221532        -2.046486
 C         0.442129         1.227567        -1.493171
 C         0.266634         1.046894        -0.031675
 O        -0.899425         0.309127         0.298684
 C         1.386704         0.132032         0.407139
 O         2.549120         0.350915         0.063394
 H        -2.185732        -2.032915         0.111979
 H        -2.006262        -2.306792        -1.727920
 H        -0.555461        -2.325598        -0.553928
 H        -2.730393         0.303889        -2.646078
 H        -2.217641         1.554883        -1.498824
 H        -0.354790        -0.408600        -3.011564
 H         1.454754         0.997718        -1.868183
 H         0.373298         2.312805        -1.929431
 H         0.162935         1.934095         0.613606
 H         1.105431        -0.569806         1.234556
