19
Iteration:   257charge 0 multiplicity 1
 C        -1.587719        -1.922007        -0.704887
 C        -1.276811        -0.419764        -1.008560
 C        -2.040101         0.556808        -1.919070
 C        -0.609398         0.318930        -2.137079
 C         0.383747         1.301284        -1.436324
 C         0.277209         1.008349         0.008667
 O        -0.920558         0.206664         0.205410
 C         1.567232         0.203423         0.512321
 O         2.679357         0.261348         0.033453
 H        -2.496425        -1.909459         0.059048
 H        -1.797794        -2.505602        -1.644415
 H        -0.811572        -2.341807         0.065031
 H        -2.915801         0.046711        -2.428514
 H        -2.385089         1.366264        -1.184920
 H        -0.243027        -0.228213        -2.985270
 H         1.364696         1.163281        -1.735961
 H         0.037279         2.287021        -1.638791
 H         0.249094         1.930663         0.610236
 H         1.294722        -0.377963         1.456388
