19
Iteration:  1508
 C        -1.604975        -1.810179        -0.731074
 C        -1.334996        -0.383360        -1.049773
 C        -2.170020         0.448557        -1.942256
 C        -0.596216         0.273067        -2.108983
 C         0.241589         1.336411        -1.507796
 C         0.365544         0.900798        -0.052811
 O        -0.868107         0.192025         0.223622
 C         1.650133         0.243385         0.571317
 O         2.759365         0.272800         0.190812
 H        -2.065507        -2.119566         0.337042
 H        -2.258394        -2.351904        -1.376439
 H        -0.703823        -2.402699        -0.586269
 H        -2.650525        -0.176050        -2.719821
 H        -2.671059         1.395573        -1.767709
 H        -0.158046        -0.060729        -3.004707
 H         1.251512         1.524432        -1.977882
 H        -0.147813         2.347090        -1.706614
 H         0.294723         1.935307         0.583807
 H         1.245967        -0.153046         1.630373
