19
Iteration:   147charge 0 multiplicity 1
 C        -1.607603        -1.822291        -0.838859
 C        -1.381798        -0.384900        -0.975505
 C        -2.082282         0.651723        -1.760242
 C        -0.656958         0.283400        -2.187014
 C         0.475680         1.110710        -1.614778
 C         0.247982         0.985927         0.004631
 O        -0.764208         0.019748         0.287987
 C         1.531569         0.456092         0.633246
 O         2.643814         0.276708         0.087056
 H        -2.265452        -2.202531         0.046135
 H        -1.840463        -2.234105        -1.931393
 H        -0.561187        -2.287667        -0.606174
 H        -2.961604         0.205548        -2.301452
 H        -2.285185         1.571757        -1.160717
 H        -0.597178        -0.217766        -3.157917
 H         1.388613         0.592098        -1.752951
 H         0.531750         2.168837        -2.005184
 H        -0.147272         1.948020         0.343067
 H         1.351549        -0.174179         1.576339
