19
Iteration:  2786charge 0 multiplicity 1
 C        -1.631866        -1.895077        -0.798574
 C        -1.284474        -0.444152        -0.943622
 C        -1.983940         0.461098        -1.906881
 C        -0.576977         0.162271        -2.070999
 C         0.362092         1.302623        -1.492941
 C         0.260282         1.075389         0.023332
 O        -0.888023         0.257354         0.290359
 C         1.554599         0.231737         0.523718
 O         2.628927         0.324723         0.037439
 H        -2.450032        -1.996573        -0.172374
 H        -1.911893        -2.239786        -1.837246
 H        -0.773204        -2.423810        -0.465876
 H        -2.796065         0.149196        -2.542171
 H        -2.087488         1.467140        -1.534431
 H        -0.252598        -0.555731        -2.838063
 H         1.514428         1.288986        -1.611680
 H         0.012236         2.379274        -1.871079
 H         0.243122         1.968845         0.592945
 H         1.253756        -0.592450         1.215079
