19
Iteration:   983
 C        -1.668558        -1.831329        -0.710116
 C        -1.338304        -0.385189        -1.064329
 C        -2.130467         0.455809        -2.003516
 C        -0.625067         0.285736        -2.175056
 C         0.310529         1.335662        -1.516486
 C         0.322981         0.944875         0.001409
 O        -0.875974         0.135606         0.276960
 C         1.639600         0.375909         0.643805
 O         2.810554         0.231598         0.132000
 H        -2.355508        -1.898909         0.227382
 H        -2.204344        -2.324573        -1.627623
 H        -0.826595        -2.519209        -0.573412
 H        -2.681535        -0.160271        -2.719414
 H        -2.622596         1.331213        -1.618464
 H        -0.289111        -0.318898        -3.071306
 H         1.309177         1.337544        -1.848505
 H        -0.082663         2.283934        -1.474377
 H         0.204791         1.814931         0.548724
 H         1.478510        -0.116801         1.690371
