19
Iteration:  1786
 C        -1.441442        -1.880294        -0.711416
 C        -1.271747        -0.376158        -0.988510
 C        -2.129635         0.380319        -1.913925
 C        -0.599841         0.318326        -2.111185
 C         0.280392         1.468432        -1.540659
 C         0.322899         1.105071        -0.014923
 O        -0.813514         0.277513         0.239639
 C         1.443356         0.201805         0.552341
 O         2.642290         0.053415         0.099603
 H        -2.313806        -2.134124         0.027323
 H        -1.645172        -2.457196        -1.672524
 H        -0.504014        -2.322190        -0.211445
 H        -2.690464        -0.247252        -2.586950
 H        -2.578817         1.248522        -1.445434
 H        -0.293924        -0.061929        -3.066943
 H         1.247117         1.584461        -1.940044
 H        -0.218909         2.396527        -1.738226
 H         0.213027         1.940024         0.660449
 H         1.283161        -0.371376         1.469730
