19
Iteration:  1616
 C        -1.466181        -1.876723        -0.745720
 C        -1.339178        -0.358767        -0.970305
 C        -2.126964         0.444390        -1.989838
 C        -0.583970         0.283379        -2.130236
 C         0.293797         1.373050        -1.491930
 C         0.347934         0.908566         0.035366
 O        -0.967417         0.349103         0.297754
 C         1.537006         0.085456         0.539845
 O         2.685705         0.270117         0.046873
 H        -2.214304        -1.882854         0.175208
 H        -1.551234        -2.582262        -1.578745
 H        -0.485836        -2.173591        -0.240923
 H        -2.868862        -0.132654        -2.563939
 H        -2.539833         1.378407        -1.630743
 H        -0.147873        -0.240346        -2.946854
 H         1.367520         1.448308        -1.905707
 H        -0.041077         2.435879        -1.685391
 H         0.451194         1.710666         0.750468
 H         1.585681        -0.694522         1.329532
