19
Iteration:  2734
 C        -1.683061        -1.908033        -0.767639
 C        -1.272542        -0.383238        -0.994352
 C        -2.069729         0.501804        -1.995675
 C        -0.562173         0.226694        -2.084523
 C         0.402590         1.196396        -1.443965
 C         0.333195         0.962974         0.090378
 O        -0.939559         0.233505         0.268469
 C         1.534020         0.236382         0.527789
 O         2.702931         0.412311         0.033297
 H        -2.072520        -1.988201         0.266498
 H        -2.441105        -2.338921        -1.441287
 H        -0.650300        -2.423572        -0.884637
 H        -2.695606        -0.100370        -2.642014
 H        -2.465952         1.423019        -1.625251
 H        -0.407194        -0.374354        -2.987022
 H         1.422105         1.188337        -1.725043
 H         0.253215         2.194440        -1.643210
 H         0.285200         2.018735         0.652587
 H         1.375283        -0.440001         1.401769
