19
Iteration:  4355
 C        -1.868804        -1.717458        -0.664223
 C        -1.362205        -0.407176        -0.983831
 C        -1.964004         0.632171        -1.849820
 C        -0.641725         0.019537        -2.285026
 C         0.603502         0.843978        -1.873063
 C         0.392960         0.885215        -0.366348
 O        -0.629066         0.040560         0.128341
 C         1.559969         0.244448         0.359101
 O         2.351969         0.882218         1.083529
 H        -1.825739        -2.305943        -1.612976
 H        -1.256204        -2.309273        -0.021014
 H        -2.944090        -1.667181        -0.198352
 H        -2.933425         0.585025        -2.339212
 H        -1.887251         1.650812        -1.465826
 H        -0.413968        -0.525538        -3.305849
 H         1.474756         0.294482        -2.119845
 H         0.612685         1.909390        -2.233478
 H         0.159808         1.905903        -0.105548
 H         1.813358        -0.815585         0.187266
