19
Iteration:  1582charge 0 multiplicity 1
 C        -1.406852        -1.912604        -0.799255
 C        -1.343494        -0.347227        -0.944275
 C        -2.086334         0.524173        -1.900879
 C        -0.569291         0.270254        -2.066707
 C         0.429476         1.218915        -1.491077
 C         0.318661         0.937780         0.059665
 O        -0.996084         0.380679         0.312238
 C         1.493450         0.088696         0.420639
 O         2.607821         0.376370         0.030705
 H        -2.403844        -2.272586        -0.290857
 H        -1.279189        -2.723425        -1.536992
 H        -0.611951        -2.041498         0.046701
 H        -2.776047        -0.020038        -2.526174
 H        -2.422445         1.390413        -1.377318
 H        -0.324656        -0.269104        -2.951848
 H         1.408771         0.771720        -1.783710
 H         0.143160         2.283100        -1.771345
 H         0.269857         1.816534         0.622723
 H         1.179512        -0.910172         0.929909
