19
Iteration:  1210
 C        -1.615947        -1.862433        -0.746466
 C        -1.367970        -0.360776        -0.996012
 C        -2.186725         0.495468        -1.944293
 C        -0.682864         0.238960        -2.113857
 C         0.402875         1.198154        -1.429434
 C         0.350070         0.893657         0.012856
 O        -0.940903         0.308662         0.250992
 C         1.666005         0.044698         0.355911
 O         2.783590         0.533145         0.258663
 H        -2.456426        -2.114230        -0.162259
 H        -1.851770        -2.302810        -1.798087
 H        -0.733957        -2.411914        -0.322826
 H        -2.866925        -0.044990        -2.551648
 H        -2.414629         1.453688        -1.529514
 H        -0.591224        -0.394992        -2.962903
 H         1.503144         0.933900        -1.809096
 H         0.251185         2.340200        -1.742259
 H         0.393959         1.835205         0.447710
 H         1.503253        -1.038490         0.806840
