19
Iteration:  2329charge 0 multiplicity 1
 C        -1.618391        -1.889422        -0.804404
 C        -1.386050        -0.395296        -0.989034
 C        -2.104509         0.557372        -1.944338
 C        -0.577591         0.204646        -2.123239
 C         0.386370         1.258320        -1.509473
 C         0.268770         0.950588         0.006433
 O        -0.914601         0.202639         0.329242
 C         1.645114         0.224948         0.558835
 O         2.716527         0.385543         0.086099
 H        -2.301013        -2.195432        -0.027777
 H        -2.107022        -2.339688        -1.739621
 H        -0.716069        -2.378922        -0.553295
 H        -2.767982        -0.031269        -2.640643
 H        -2.322202         1.550243        -1.523962
 H        -0.323807        -0.436574        -2.945121
 H         1.478201         1.141417        -1.787110
 H        -0.057011         2.242184        -1.879495
 H         0.464412         1.782058         0.707064
 H         1.460937        -0.191629         1.594809
