19
Iteration:   214
 C        -1.609997        -1.856302        -0.858063
 C        -1.265986        -0.419399        -0.951694
 C        -2.116041         0.515633        -1.862779
 C        -0.610881         0.198859        -2.140995
 C         0.341544         1.285442        -1.539667
 C         0.258982         1.053758         0.027760
 O        -0.729030         0.204456         0.289364
 C         1.521619         0.307251         0.548770
 O         2.628801         0.223481         0.100241
 H        -2.249612        -1.962620         0.159738
 H        -2.118929        -1.938867        -1.871990
 H        -0.691287        -2.606520        -0.757044
 H        -2.980470         0.089736        -2.395664
 H        -2.147616         1.498015        -1.312920
 H        -0.264279        -0.366968        -2.985743
 H         1.300684         0.923244        -1.851294
 H         0.102616         2.340290        -1.853097
 H         0.233373         1.919673         0.735354
 H         1.196573        -0.284382         1.405830
