19
Iteration:  1712charge 0 multiplicity 1
 C        -1.335468        -1.836017        -0.726694
 C        -1.342130        -0.372483        -0.987438
 C        -2.079572         0.479509        -1.980369
 C        -0.621449         0.306298        -2.089604
 C         0.423539         1.240876        -1.413197
 C         0.236015         0.976783         0.073863
 O        -1.002080         0.291036         0.345428
 C         1.538878         0.328136         0.592790
 O         2.571057         0.120929        -0.125406
 H        -2.043510        -2.220139        -0.128747
 H        -1.434679        -2.172144        -1.746299
 H        -0.309127        -2.241045        -0.426446
 H        -2.662400        -0.142864        -2.651596
 H        -2.559886         1.385672        -1.635659
 H        -0.447749        -0.145017        -3.035225
 H         1.476818         0.893680        -1.736362
 H         0.429521         2.294718        -1.807619
 H         0.044804         1.982896         0.643629
 H         1.556444        -0.221740         1.557733
