19
Iteration:  2498
 C        -1.533521        -1.877385        -0.811152
 C        -1.364473        -0.409747        -0.956647
 C        -2.088987         0.657777        -1.820709
 C        -0.677124         0.252828        -2.182932
 C         0.513828         1.058704        -1.595657
 C         0.354694         0.918100         0.005948
 O        -0.885128         0.154156         0.285211
 C         1.562548         0.256602         0.603315
 O         2.565810         0.480374         0.078848
 H        -2.576403        -2.180403        -0.256233
 H        -1.727329        -2.223329        -1.833917
 H        -0.646082        -2.352345        -0.306775
 H        -3.036332         0.409537        -2.290150
 H        -2.063433         1.575205        -1.267233
 H        -0.425335        -0.482300        -2.922719
 H         1.536197         0.790378        -1.877247
 H         0.361681         2.129318        -1.827774
 H         0.207042         1.909926         0.631371
 H         1.276836        -0.522502         1.404904
