19
Iteration:  2774
 C        -1.589061        -1.859058        -0.861852
 C        -1.334152        -0.385102        -0.909376
 C        -1.985387         0.527524        -1.892349
 C        -0.436458         0.116954        -2.050452
 C         0.332740         1.157310        -1.462406
 C         0.281994         1.027176         0.044818
 O        -0.918795         0.274279         0.356343
 C         1.452122         0.239868         0.480666
 O         2.631123         0.381592        -0.016059
 H        -2.245957        -2.110814        -0.076914
 H        -2.077405        -2.230569        -1.824009
 H        -0.766498        -2.449831        -0.681118
 H        -2.719623         0.200780        -2.622355
 H        -2.133821         1.552801        -1.516357
 H         0.105056        -0.483191        -2.769502
 H         1.326057         0.940252        -1.990137
 H        -0.057023         2.257573        -1.776501
 H         0.226343         1.936903         0.527435
 H         1.285566        -0.515411         1.287443
