19
Iteration:  1233
 C        -1.674522        -1.901128        -0.796735
 C        -1.292387        -0.399876        -0.932600
 C        -2.080115         0.477325        -1.723304
 C        -0.613228         0.235450        -2.107519
 C         0.330589         1.296149        -1.633361
 C         0.418027         0.952482        -0.099990
 O        -0.838665         0.259065         0.244849
 C         1.494779         0.103201         0.439526
 O         2.704187         0.457659         0.293434
 H        -2.633577        -2.152625        -0.429959
 H        -1.710541        -2.201378        -1.885187
 H        -0.931871        -2.499608        -0.270947
 H        -2.679007         0.092505        -2.505720
 H        -2.221604         1.450837        -1.374367
 H        -0.436099        -0.431504        -2.936289
 H         1.268147         1.224586        -2.359666
 H        -0.068706         2.399271        -1.791887
 H         0.402445         1.873911         0.435758
 H         1.174031        -0.895731         0.952675
