19
Iteration:  1655charge 0 multiplicity 1
 C        -1.544627        -1.915306        -0.785876
 C        -1.224727        -0.451949        -0.966346
 C        -2.011839         0.380974        -1.862397
 C        -0.534784         0.281103        -2.084233
 C         0.278814         1.531711        -1.553937
 C         0.287808         1.159181        -0.000318
 O        -0.840849         0.264945         0.330541
 C         1.421691         0.169866         0.444572
 O         2.642772         0.125767         0.084262
 H        -2.017085        -1.972313         0.091597
 H        -2.260285        -2.379496        -1.482418
 H        -0.669383        -2.582042        -0.748819
 H        -2.731680        -0.229985        -2.396750
 H        -2.303464         1.359782        -1.521112
 H        -0.105777        -0.420856        -2.827799
 H         1.259188         1.474296        -1.987488
 H        -0.252582         2.445425        -1.758273
 H         0.230783         2.119651         0.657155
 H         0.960227        -0.450141         1.226808
