19
Iteration:  2594charge 0 multiplicity 1
 C        -1.639762        -1.920121        -0.771858
 C        -1.412767        -0.356303        -0.927785
 C        -2.054142         0.591897        -1.911466
 C        -0.613759         0.237816        -2.097110
 C         0.355495         1.205315        -1.544766
 C         0.314623         0.973530         0.007519
 O        -0.828954         0.119164         0.223131
 C         1.605135         0.159430         0.457446
 O         2.679068         0.479131         0.210890
 H        -2.176164        -1.978420         0.177371
 H        -2.277294        -2.342162        -1.459617
 H        -0.686260        -2.380397        -0.652762
 H        -2.813091         0.148871        -2.537528
 H        -2.279673         1.576406        -1.505330
 H        -0.301327        -0.217161        -3.023791
 H         1.311581         0.969015        -2.022262
 H         0.264901         2.332569        -1.875754
 H         0.355969         1.844606         0.553685
 H         1.346617        -0.738001         1.049391
