19
Iteration:  4239
 C        -1.907840        -1.803733        -0.755299
 C        -1.323214        -0.481391        -1.055974
 C        -1.958547         0.620025        -1.865073
 C        -0.631776         0.053968        -2.276918
 C         0.580748         0.799215        -1.865083
 C         0.403986         0.977383        -0.221707
 O        -0.762748         0.105198         0.050190
 C         1.493006         0.298959         0.654020
 O         2.590700         0.885533         0.922076
 H        -2.637184        -2.140227        -1.541267
 H        -1.290995        -2.817357        -0.758098
 H        -2.372740        -1.721864         0.311937
 H        -2.821002         0.399032        -2.507693
 H        -1.951696         1.672053        -1.535305
 H        -0.580865        -0.495213        -3.239989
 H         1.406215         0.075975        -2.082217
 H         0.634707         1.840871        -2.301382
 H         0.230379         2.024667         0.252174
 H         1.270280        -0.762069         0.687462
