19
Iteration:  4385
 C        -1.840606        -1.859009        -0.777647
 C        -1.432010        -0.459568        -1.023760
 C        -2.058610         0.738135        -1.916415
 C        -0.721788         0.021545        -2.259729
 C         0.571970         0.677243        -1.825056
 C         0.455554         0.952697        -0.338456
 O        -0.690071         0.172018         0.125980
 C         1.710271         0.314126         0.451188
 O         2.444712         0.903102         1.162541
 H        -2.554239        -2.238552        -1.666074
 H        -1.080348        -2.622560        -0.661564
 H        -2.372622        -2.036801         0.145046
 H        -2.954290         0.515406        -2.495266
 H        -1.929078         1.748123        -1.539263
 H        -0.690711        -0.360835        -3.290205
 H         1.338928        -0.119715        -2.041133
 H         0.809353         1.533695        -2.405808
 H         0.216078         1.958310        -0.028799
 H         1.929059        -0.696293        -0.130754
