19
Iteration:  2130charge 0 multiplicity 1
 C        -1.536972        -1.881151        -0.796523
 C        -1.349443        -0.352815        -0.945827
 C        -2.090321         0.461984        -1.951012
 C        -0.676984         0.314892        -2.091441
 C         0.385753         1.288272        -1.508235
 C         0.338727         0.911729         0.041465
 O        -0.977954         0.256972         0.274436
 C         1.578949         0.219604         0.585782
 O         2.740543         0.293696         0.028888
 H        -2.375595        -2.090572        -0.178172
 H        -1.600793        -2.411580        -1.755081
 H        -0.516019        -2.340284        -0.330237
 H        -2.779117        -0.088956        -2.583298
 H        -2.447632         1.404269        -1.594298
 H        -0.262415        -0.506720        -2.805077
 H         1.514666         1.206404        -1.827186
 H         0.016579         2.292615        -1.727844
 H         0.205423         1.881875         0.579161
 H         1.248829        -0.221186         1.543539
