19
Iteration:  3613
 C        -2.066036        -1.833310        -0.885494
 C        -1.308581        -0.446281        -1.120783
 C        -1.952704         0.660699        -1.846816
 C        -0.621762         0.147357        -2.296807
 C         0.594202         0.871986        -1.626578
 C         0.305781         0.883927        -0.128139
 O        -0.558224        -0.220363         0.056097
 C         1.467945         0.660610         0.909221
 O         2.650469         0.762130         0.533346
 H        -2.211334        -2.425967        -1.934621
 H        -1.593940        -2.489033        -0.144630
 H        -3.162291        -1.580003        -0.466835
 H        -2.821525         0.330660        -2.435061
 H        -2.036546         1.699191        -1.398741
 H        -0.562677        -0.495263        -3.206945
 H         1.571834         0.498464        -1.730514
 H         0.456289         1.831538        -2.067183
 H        -0.278468         1.797291         0.168749
 H         1.160813         0.309149         1.923208
