19
Iteration:  2717
 C        -1.644828        -1.891486        -0.685085
 C        -1.333144        -0.450059        -0.996724
 C        -2.081524         0.446390        -1.882656
 C        -0.592215         0.282127        -2.173622
 C         0.368139         1.343956        -1.516208
 C         0.295271         0.943781        -0.042249
 O        -0.871063         0.200019         0.199815
 C         1.553827         0.220862         0.567413
 O         2.761815         0.354543         0.160764
 H        -2.286358        -1.795531         0.246055
 H        -2.352040        -2.138221        -1.468955
 H        -0.848212        -2.594813        -0.624279
 H        -2.786340         0.113676        -2.693620
 H        -2.456105         1.439272        -1.518736
 H        -0.126517        -0.157355        -3.066263
 H         1.422291         1.239349        -1.946886
 H        -0.070180         2.451614        -1.781000
 H         0.100006         1.757038         0.574997
 H         1.376120        -0.453237         1.446134
