19
Iteration:  4525
 C        -2.268701        -1.784452        -1.064421
 C        -1.441403        -0.441087        -1.048950
 C        -1.915226         0.842985        -1.785331
 C        -0.671550        -0.056406        -2.257740
 C         0.621094         0.609193        -1.726260
 C         0.438242         0.687140        -0.181692
 O        -0.667181        -0.253605         0.158583
 C         1.817283         0.412536         0.625649
 O         2.531988         1.363076         0.893849
 H        -3.351612        -1.372325        -1.174834
 H        -1.958544        -2.453856        -1.935151
 H        -1.968322        -2.314647        -0.208891
 H        -2.774061         0.684864        -2.468200
 H        -1.728285         1.830330        -1.323338
 H        -0.758216        -0.598726        -3.251855
 H         1.580262        -0.030195        -1.854666
 H         0.785124         1.582550        -2.134104
 H         0.102159         1.766416         0.041624
 H         2.286632        -0.585450         0.950654
