19
Iteration:   376charge 0 multiplicity 1
 C        -1.434458        -1.786830        -0.733472
 C        -1.280263        -0.357728        -0.967980
 C        -2.160548         0.350694        -1.934022
 C        -0.633392         0.319794        -2.123408
 C         0.316814         1.351117        -1.481080
 C         0.326474         0.979851         0.037175
 O        -0.939829         0.361233         0.245095
 C         1.526252         0.115296         0.472426
 O         2.726633         0.181000         0.102716
 H        -2.033798        -1.703683         0.113851
 H        -2.069221        -2.233997        -1.439943
 H        -0.622595        -2.378893        -0.407646
 H        -2.783185        -0.387330        -2.592336
 H        -2.518304         1.492070        -1.728816
 H        -0.341045        -0.251073        -3.009588
 H         1.368995         1.128251        -1.886626
 H         0.022919         2.401195        -1.529320
 H         0.258309         1.835768         0.747115
 H         1.204358        -0.757887         1.118068
