19
Iteration:  1878charge 0 multiplicity 1
 C        -1.537041        -1.844663        -0.731566
 C        -1.257046        -0.427040        -0.929832
 C        -2.007042         0.412078        -1.886258
 C        -0.508958         0.267322        -2.042903
 C         0.316411         1.394419        -1.509345
 C         0.265574         1.048617        -0.000039
 O        -0.898934         0.246412         0.241836
 C         1.431266         0.188467         0.483287
 O         2.647912         0.215079         0.041517
 H        -2.378563        -1.980654        -0.064952
 H        -1.879507        -2.262097        -1.701598
 H        -0.609572        -2.444899        -0.203874
 H        -2.745490        -0.232611        -2.477018
 H        -2.284181         1.452992        -1.630422
 H        -0.077559        -0.243271        -2.945425
 H         1.374929         1.527937        -1.972727
 H        -0.128063         2.458461        -1.694934
 H         0.266270         1.912784         0.563430
 H         1.044743        -0.561010         1.180545
