19
Iteration:  2590charge 0 multiplicity 1
 C        -1.677672        -1.920504        -0.779027
 C        -1.399619        -0.383208        -0.944881
 C        -2.098144         0.605806        -1.884995
 C        -0.591509         0.192980        -2.097994
 C         0.364125         1.271862        -1.543544
 C         0.313543         0.982196        -0.017888
 O        -0.817141         0.114167         0.236396
 C         1.592038         0.165682         0.459475
 O         2.701919         0.468012         0.219524
 H        -2.112159        -1.968682         0.226028
 H        -2.495162        -2.315023        -1.595762
 H        -0.578668        -2.442508        -0.658313
 H        -2.774584         0.054994        -2.566168
 H        -2.223020         1.649295        -1.586731
 H        -0.191977        -0.262044        -3.023701
 H         1.363763         1.028582        -1.944624
 H         0.078265         2.224850        -1.970173
 H         0.363919         1.955918         0.618945
 H         1.385006        -0.731291         1.104550
