19
Iteration:  2877charge 0 multiplicity 1
 C        -1.364122        -1.881218        -0.874534
 C        -1.264738        -0.339130        -0.868418
 C        -2.102456         0.440906        -1.820451
 C        -0.578674         0.251216        -2.069883
 C         0.385322         1.239378        -1.570842
 C         0.311932         1.081451        -0.025791
 O        -0.940781         0.404207         0.290609
 C         1.455395         0.116397         0.533870
 O         2.526504         0.216528         0.103112
 H        -2.091908        -2.261334        -0.053080
 H        -1.641523        -2.265693        -1.803769
 H        -0.351908        -2.417894        -0.693499
 H        -2.783335        -0.139953        -2.451748
 H        -2.370289         1.499661        -1.615858
 H        -0.317065        -0.489582        -2.822724
 H         1.430399         1.101154        -1.922764
 H         0.200429         2.246068        -2.003137
 H         0.363660         2.048375         0.353600
 H         1.073710        -0.669431         1.260130
