19
Iteration:  2069charge 0 multiplicity 1
 C        -1.550736        -1.887784        -0.814992
 C        -1.246196        -0.454912        -0.875025
 C        -2.067167         0.490023        -1.802817
 C        -0.562269         0.273951        -2.102690
 C         0.395007         1.270006        -1.593212
 C         0.288498         1.065964        -0.012517
 O        -0.842685         0.199362         0.278627
 C         1.400560         0.265630         0.471172
 O         2.630039         0.271096         0.106378
 H        -2.569356        -2.135952        -0.292939
 H        -1.662073        -2.249338        -1.867347
 H        -0.823587        -2.357376        -0.264162
 H        -2.781005         0.131606        -2.567843
 H        -2.281871         1.522113        -1.488243
 H        -0.430928        -0.372649        -2.987759
 H         1.482474         1.355350        -1.736407
 H         0.044111         2.352843        -1.795584
 H         0.340716         1.955252         0.520586
 H         1.197135        -0.522056         1.270733
