19
Iteration:  1133charge 0 multiplicity 1
 C        -1.710465        -1.945561        -0.779079
 C        -1.247522        -0.426431        -0.941045
 C        -2.178088         0.389765        -1.838286
 C        -0.603169         0.276481        -2.126723
 C         0.325387         1.323523        -1.624457
 C         0.392402         1.108199        -0.070085
 O        -0.819277         0.229139         0.310780
 C         1.555524         0.215100         0.363025
 O         2.763109         0.315047         0.343690
 H        -2.398181        -1.966103        -0.012571
 H        -2.362011        -2.240928        -1.641448
 H        -0.916352        -2.685467        -0.688656
 H        -2.874110         0.102454        -2.626720
 H        -2.387501         1.391361        -1.416333
 H        -0.254112        -0.201769        -3.040808
 H         1.501073         1.300296        -1.872264
 H        -0.074977         2.395038        -1.983301
 H         0.201601         2.036712         0.473463
 H         1.069515        -0.647359         0.737141
