19
Iteration:  3294
 C        -1.576515        -1.928502        -0.872744
 C        -1.382818        -0.450023        -0.946068
 C        -2.064181         0.529674        -1.814937
 C        -0.600147         0.215583        -2.115331
 C         0.486767         1.158770        -1.583061
 C         0.257435         1.098995        -0.111618
 O        -0.856798         0.260412         0.217570
 C         1.497552         0.222446         0.579395
 O         2.634989         0.396376         0.298380
 H        -0.935319        -2.469723        -1.672518
 H        -1.181215        -2.373522         0.068509
 H        -2.528673        -2.320077        -1.119408
 H        -2.766701         0.232939        -2.621805
 H        -2.293982         1.511156        -1.441402
 H        -0.467773        -0.444618        -2.989962
 H         1.546020         0.939212        -1.816676
 H         0.422163         2.216628        -2.005823
 H         0.176718         1.941989         0.449538
 H         1.161751        -0.415404         1.462173
