19
Iteration:  1173charge 0 multiplicity 1
 C        -1.577791        -1.839034        -0.704906
 C        -1.366005        -0.372802        -0.963760
 C        -2.138233         0.579111        -1.942991
 C        -0.611443         0.181293        -2.133251
 C         0.403569         1.208298        -1.470967
 C         0.363622         0.880539        -0.016509
 O        -0.886519         0.254676         0.290530
 C         1.560878        -0.001584         0.349576
 O         2.661679         0.572335         0.232244
 H        -2.170531        -2.026447         0.284351
 H        -2.182703        -2.221534        -1.551322
 H        -0.583586        -2.415796        -0.779946
 H        -2.847209         0.203910        -2.741048
 H        -2.406412         1.630376        -1.661193
 H        -0.182143        -0.496749        -2.897884
 H         1.306443         1.095578        -1.937263
 H         0.101302         2.218629        -1.561501
 H         0.542364         1.743211         0.611845
 H         1.406932        -1.098865         0.658045
