19
Iteration:   740
 C        -1.547690        -1.859651        -0.724080
 C        -1.204177        -0.391924        -0.890263
 C        -2.014496         0.444577        -1.957310
 C        -0.560503         0.264269        -2.048173
 C         0.234901         1.474080        -1.559351
 C         0.244484         1.102987        -0.028216
 O        -0.803496         0.255085         0.358277
 C         1.437576         0.106939         0.435049
 O         2.645539         0.128976         0.041948
 H        -2.482194        -2.006533        -0.218916
 H        -1.528861        -2.406630        -1.652683
 H        -0.745408        -2.305267        -0.114905
 H        -2.632924        -0.129429        -2.697334
 H        -2.409565         1.460816        -1.846505
 H        -0.231403        -0.399620        -2.869114
 H         1.290976         1.796427        -1.825577
 H        -0.300352         2.392630        -1.742653
 H         0.348214         1.895315         0.788216
 H         1.144586        -0.657375         1.232533
