19
Iteration:  1083
 C        -1.443363        -1.870931        -0.723858
 C        -1.396491        -0.379286        -0.974158
 C        -2.116527         0.625107        -1.872256
 C        -0.731645         0.251134        -2.155263
 C         0.348999         1.181276        -1.575910
 C         0.373552         0.791153        -0.073221
 O        -0.940034         0.323849         0.233572
 C         1.568197         0.062665         0.529548
 O         2.729473         0.473685         0.197421
 H        -2.416130        -2.207910        -0.138508
 H        -1.458037        -2.464433        -1.671549
 H        -0.492695        -2.130882        -0.240607
 H        -2.906088         0.301228        -2.502832
 H        -2.404881         1.532595        -1.372449
 H        -0.305553        -0.371717        -2.924058
 H         1.281215         0.975357        -1.939666
 H         0.236939         2.207642        -1.655651
 H         0.259394         1.636335         0.534794
 H         1.343465        -0.679475         1.342366
