19
Iteration:    11
 C        -2.056304        -1.868118        -0.932924
 C        -1.369813        -0.471988        -1.008155
 C        -2.025503         0.771061        -1.582646
 C        -0.690790         0.188473        -2.124903
 C         0.623491         0.941652        -1.659937
 C         0.355894         0.853009        -0.119241
 O        -0.613779        -0.107670         0.164828
 C         1.545352         0.457233         0.685926
 O         2.660014         0.773250         0.233961
 H        -2.660142        -2.165379        -0.102988
 H        -2.553815        -2.078254        -1.833714
 H        -1.243388        -2.561137        -1.001200
 H        -2.977349         0.409058        -2.054880
 H        -1.998874         1.703482        -0.999250
 H        -0.685734        -0.294639        -3.092359
 H         1.333657         0.163651        -1.883040
 H         0.861314         1.863834        -2.092228
 H         0.170276         1.754206         0.322542
 H         1.441704        -0.406319         1.449958
