19
Iteration:  2738charge 0 multiplicity 1
 C        -1.665754        -1.913416        -0.787083
 C        -1.319616        -0.358651        -0.966128
 C        -2.050160         0.472583        -1.996966
 C        -0.532502         0.236564        -2.074243
 C         0.380324         1.186654        -1.454508
 C         0.337692         0.969771         0.101985
 O        -0.931315         0.239834         0.279997
 C         1.543729         0.220559         0.536446
 O         2.671198         0.423806         0.012475
 H        -2.075833        -2.000668         0.294109
 H        -2.407134        -2.272004        -1.474878
 H        -0.697465        -2.410309        -0.929642
 H        -2.767277         0.004407        -2.728679
 H        -2.390688         1.455358        -1.590322
 H        -0.244392        -0.454357        -2.896298
 H         1.465435         1.010347        -1.771459
 H         0.324215         2.315379        -1.679618
 H         0.209097         1.927560         0.575791
 H         1.424024        -0.474129         1.393350
