19
Iteration:  4660
 C        -2.137090        -1.751000        -0.952150
 C        -1.360918        -0.458072        -1.064929
 C        -1.909189         0.640505        -1.875724
 C        -0.523776         0.083267        -2.242080
 C         0.745916         0.714817        -1.603308
 C         0.308082         0.936835        -0.142331
 O        -0.723458        -0.203364         0.096242
 C         1.470612         0.546651         0.745329
 O         2.602914         1.018888         0.626629
 H        -1.670124        -2.323174        -0.089116
 H        -3.079831        -1.725531        -0.514784
 H        -2.122914        -2.566666        -1.743852
 H        -2.580813         0.323157        -2.660134
 H        -2.117981         1.594638        -1.464911
 H        -0.425913        -0.581565        -3.040982
 H         1.534989        -0.043479        -1.589547
 H         1.053432         1.704152        -2.035776
 H        -0.045338         1.935137         0.026166
 H         1.271513        -0.421733         1.368257
