19
Iteration:   217
 C        -1.604212        -1.856670        -0.835306
 C        -1.277084        -0.411127        -0.934446
 C        -2.088772         0.536042        -1.869873
 C        -0.602677         0.217326        -2.148315
 C         0.332014         1.276568        -1.536195
 C         0.277983         1.054839         0.010993
 O        -0.717549         0.182284         0.281041
 C         1.506724         0.287777         0.533107
 O         2.602640         0.231759         0.105138
 H        -2.230753        -1.931739         0.105589
 H        -2.064192        -2.035800        -1.779485
 H        -0.723979        -2.558986        -0.714932
 H        -2.971948         0.080065        -2.270808
 H        -2.214724         1.438532        -1.375377
 H        -0.258646        -0.361699        -3.015879
 H         1.440654         0.988430        -1.892443
 H         0.011469         2.396070        -1.827160
 H         0.148683         1.964066         0.712288
 H         1.182736        -0.379318         1.425859
