19
Iteration:   531charge 0 multiplicity 1
 C        -1.589816        -1.917129        -0.802520
 C        -1.242524        -0.375762        -0.977427
 C        -2.105513         0.441751        -1.798283
 C        -0.502391         0.282974        -2.015972
 C         0.470224         1.263034        -1.552072
 C         0.304830         1.056723         0.034970
 O        -0.874166         0.270803         0.283590
 C         1.448445         0.240388         0.563661
 O         2.530226         0.247260        -0.064930
 H        -2.219363        -1.995666         0.032794
 H        -2.058644        -2.223315        -1.635103
 H        -0.711874        -2.561759        -0.717439
 H        -2.720433        -0.030098        -2.597951
 H        -2.525659         1.342511        -1.381880
 H        -0.217468        -0.311396        -2.877108
 H         1.581045         1.037230        -1.904460
 H         0.411432         2.359307        -1.873314
 H         0.262307         1.943436         0.722494
 H         1.302210        -0.267933         1.489504
