19
Iteration:  1870charge 0 multiplicity 1
 C        -1.536866        -1.858519        -0.783147
 C        -1.248423        -0.392937        -0.910101
 C        -2.002216         0.386786        -1.833541
 C        -0.433074         0.258443        -2.058687
 C         0.338994         1.392992        -1.493810
 C         0.295415         1.054574        -0.026941
 O        -0.912799         0.259509         0.286770
 C         1.462727         0.163930         0.445042
 O         2.538988         0.241749         0.035936
 H        -2.225323        -1.904742         0.098772
 H        -1.826131        -2.422473        -1.645499
 H        -0.626146        -2.304682        -0.489720
 H        -2.723952        -0.026374        -2.527834
 H        -2.293736         1.417713        -1.683213
 H        -0.280201        -0.368354        -2.880301
 H         1.376020         1.270598        -1.847139
 H        -0.139808         2.375333        -1.810564
 H         0.189463         1.966995         0.562789
 H         1.015701        -0.603284         1.181685
