19
Iteration:  1810charge 0 multiplicity 1
 C        -1.376030        -1.858917        -0.719749
 C        -1.277311        -0.328276        -0.958352
 C        -2.118093         0.424954        -2.016481
 C        -0.629111         0.308034        -2.102461
 C         0.327408         1.330988        -1.449830
 C         0.318870         0.931415         0.032885
 O        -0.986664         0.332406         0.260518
 C         1.539929         0.227495         0.561013
 O         2.613205         0.145529         0.008925
 H        -1.954252        -2.052067         0.181263
 H        -1.963286        -2.372721        -1.520952
 H        -0.353571        -2.403410        -0.517124
 H        -2.753690        -0.160325        -2.667618
 H        -2.382571         1.420689        -1.590474
 H        -0.137557        -0.199376        -2.950722
 H         1.355199         1.303723        -1.895954
 H        -0.010638         2.381065        -1.502673
 H         0.238120         1.757455         0.639639
 H         1.505660        -0.266625         1.531197
