19
Iteration:  1441
 C        -1.562124        -1.930570        -0.901405
 C        -1.330048        -0.378890        -0.885272
 C        -2.042924         0.571860        -1.785093
 C        -0.559035         0.199057        -2.066383
 C         0.406864         1.155722        -1.595190
 C         0.308347         1.002374        -0.065522
 O        -0.876229         0.215597         0.303894
 C         1.458785         0.268295         0.584184
 O         2.610773         0.392117         0.072546
 H        -2.464628        -2.287376        -0.252000
 H        -1.859407        -2.205549        -1.937750
 H        -0.724559        -2.427577        -0.356146
 H        -2.858980         0.218027        -2.362327
 H        -2.165434         1.603227        -1.474220
 H        -0.238124        -0.395346        -2.932516
 H         1.429865         0.868417        -1.940090
 H         0.305163         2.186377        -1.968445
 H         0.213964         2.050896         0.552531
 H         1.451878        -0.500987         1.414453
