19
Iteration:  4430charge 0 multiplicity 1
 C        -1.943289        -1.805835        -0.829832
 C        -1.413144        -0.403201        -0.991686
 C        -2.097071         0.669108        -1.884030
 C        -0.729870         0.109109        -2.278609
 C         0.629590         0.677620        -1.837357
 C         0.498659         0.827664        -0.353050
 O        -0.581527         0.077295         0.093677
 C         1.663859         0.277159         0.503856
 O         2.418442         1.045975         1.127421
 H        -3.044616        -1.761660        -1.247345
 H        -1.534054        -2.579801        -1.459443
 H        -1.845648        -2.367785         0.159455
 H        -2.914343         0.445274        -2.582388
 H        -2.128993         1.623726        -1.355649
 H        -0.710108        -0.690152        -3.114165
 H         1.410167        -0.087634        -2.054802
 H         0.901536         1.656645        -2.244472
 H         0.499612         1.913666        -0.153583
 H         1.678829        -0.836075         0.780414
