19
Iteration:  4279
 C        -1.954957        -1.746296        -0.757895
 C        -1.412518        -0.368524        -0.996438
 C        -1.993362         0.574632        -2.007945
 C        -0.627206        -0.032612        -2.183637
 C         0.538826         0.855256        -1.759858
 C         0.466729         0.843429        -0.218119
 O        -0.741907         0.104032         0.193965
 C         1.675642         0.267944         0.317635
 O         2.476087         0.912901         1.038099
 H        -1.937649        -2.215738        -1.699676
 H        -1.299814        -2.287177        -0.149567
 H        -3.049240        -1.729900        -0.532091
 H        -2.870811         0.359596        -2.634758
 H        -2.070112         1.649326        -1.848845
 H        -0.403884        -0.668554        -3.113754
 H         1.393119         0.233583        -2.023337
 H         0.693181         1.859751        -2.249535
 H         0.258097         1.928782         0.172349
 H         2.224299        -0.628485        -0.134840
