19
Iteration:  2633
 C        -1.532637        -1.860944        -0.843904
 C        -1.400326        -0.411459        -0.944720
 C        -2.174296         0.550912        -1.769059
 C        -0.688707         0.313213        -2.093809
 C         0.475704         1.114912        -1.594096
 C         0.409557         0.864265        -0.025410
 O        -0.937981         0.346503         0.171358
 C         1.611842         0.080110         0.507897
 O         2.660014         0.509076         0.213009
 H        -2.398239        -2.246951        -0.309299
 H        -1.431473        -2.355565        -1.952832
 H        -0.642310        -2.186655        -0.129353
 H        -2.907571         0.015864        -2.392206
 H        -2.417902         1.421904        -1.168657
 H        -0.555503        -0.341640        -2.963668
 H         1.332633         0.518655        -1.913863
 H         0.489746         2.131283        -1.783479
 H         0.188263         1.837887         0.620422
 H         1.377199        -0.796939         1.187533
