19
Iteration:  4480charge 0 multiplicity 1
 C        -2.200093        -1.751283        -0.866022
 C        -1.378316        -0.482820        -1.072979
 C        -1.902303         0.739666        -1.837696
 C        -0.615503         0.085922        -2.224246
 C         0.627209         0.691429        -1.736866
 C         0.396070         0.831031        -0.227112
 O        -0.567041        -0.217763         0.082268
 C         1.647582         0.438042         0.476081
 O         2.430040         1.138698         0.981100
 H        -3.287838        -1.586726        -0.869341
 H        -1.888325        -2.722306        -1.382019
 H        -1.901086        -2.074308         0.112417
 H        -2.801223         0.368246        -2.355856
 H        -1.773106         1.780916        -1.542435
 H        -0.519947        -0.311823        -3.196274
 H         1.437578        -0.078207        -1.891103
 H         0.927306         1.578808        -2.314236
 H         0.212582         1.893602         0.050290
 H         1.898598        -0.707826         0.453125
