19
Iteration:  3811
 C        -2.269694        -1.738939        -0.764946
 C        -1.433172        -0.451064        -1.155742
 C        -1.898215         0.826219        -1.865830
 C        -0.689979         0.175181        -2.336938
 C         0.740867         0.457480        -1.869777
 C         0.467601         0.653212        -0.297287
 O        -0.510866        -0.322964         0.066874
 C         1.695201         0.506265         0.617576
 O         2.364807         1.340754         1.115533
 H        -2.106420        -1.940481         0.349647
 H        -3.276053        -1.426053        -0.968630
 H        -1.965234        -2.709151        -1.458197
 H        -2.803351         0.617815        -2.499647
 H        -2.028407         1.785454        -1.301066
 H        -0.666488        -0.534822        -3.221073
 H         1.671323        -0.273522        -2.103660
 H         1.147025         1.464737        -2.161682
 H         0.125298         1.701951        -0.122523
 H         1.898214        -0.609731         0.855662
