19
Iteration:  2078
 C        -1.553346        -1.921521        -0.789964
 C        -1.284041        -0.418814        -0.959941
 C        -2.053355         0.520872        -1.780740
 C        -0.557631         0.253907        -2.077425
 C         0.430907         1.305208        -1.563994
 C         0.259526         1.037621        -0.038036
 O        -0.878665         0.215931         0.346067
 C         1.497405         0.197718         0.486061
 O         2.580894         0.313350         0.056401
 H        -2.577282        -2.228152        -0.382132
 H        -1.380480        -2.289785        -1.826404
 H        -0.729159        -2.305270        -0.268222
 H        -2.627991         0.094566        -2.597765
 H        -2.284432         1.512127        -1.434785
 H        -0.240383        -0.222286        -3.091180
 H         1.387077         0.841184        -1.736105
 H         0.236383         2.241201        -2.022552
 H         0.114528         2.067375         0.494205
 H         0.994221        -0.394249         1.306788
