19
Iteration:   954
 C        -1.624923        -1.881906        -0.799306
 C        -1.270117        -0.431685        -0.974948
 C        -2.076525         0.507125        -1.861338
 C        -0.576694         0.232568        -2.104770
 C         0.435213         1.240574        -1.531501
 C         0.322151         1.022452         0.034538
 O        -0.814446         0.208735         0.279584
 C         1.508431         0.302640         0.592497
 O         2.559647         0.306597         0.021810
 H        -2.438723        -2.083688        -0.074892
 H        -1.918437        -2.123468        -1.790236
 H        -0.837248        -2.566387        -0.548970
 H        -2.626409        -0.076305        -2.567694
 H        -2.441119         1.453643        -1.529927
 H        -0.364055        -0.365113        -2.980662
 H         1.466252         0.928168        -1.724999
 H         0.333237         2.402800        -1.676472
 H         0.081729         2.070198         0.549722
 H         1.216465        -0.301641         1.446473
