19
Iteration:  2686charge 0 multiplicity 1
 C        -1.580765        -1.888775        -0.726113
 C        -1.303006        -0.390935        -0.955004
 C        -2.172555         0.489242        -1.804098
 C        -0.656864         0.239669        -2.198118
 C         0.282501         1.281667        -1.620582
 C         0.363730         1.022068        -0.117033
 O        -0.710047         0.187960         0.227584
 C         1.548439         0.213824         0.492166
 O         2.703604         0.292646         0.342523
 H        -2.552326        -1.883831        -0.287847
 H        -1.880341        -2.183771        -1.763433
 H        -0.865523        -2.440094        -0.250506
 H        -2.882021         0.017030        -2.524608
 H        -2.399638         1.534749        -1.505515
 H        -0.419747        -0.166639        -3.188560
 H         1.284801         1.490955        -2.099108
 H        -0.084853         2.374537        -1.748407
 H         0.088627         1.965393         0.398117
 H         1.053335        -0.520897         1.190444
