19
Iteration:  2903charge 0 multiplicity 1
 C        -1.340074        -1.898272        -0.709591
 C        -1.277926        -0.344584        -0.966492
 C        -2.100536         0.441356        -1.938150
 C        -0.561029         0.313805        -2.052070
 C         0.469764         1.252791        -1.443164
 C         0.274683         1.028900         0.062852
 O        -0.999752         0.365195         0.233087
 C         1.416033         0.173113         0.474725
 O         2.561596         0.201669         0.004926
 H        -1.739310        -2.087691         0.396670
 H        -2.109605        -2.329530        -1.543133
 H        -0.464852        -2.560582        -0.900653
 H        -2.737744        -0.036331        -2.707722
 H        -2.540843         1.372107        -1.556528
 H        -0.288973        -0.286828        -2.916465
 H         1.462517         0.948425        -1.720052
 H         0.316182         2.204264        -1.888796
 H         0.359514         2.051396         0.721757
 H         1.178441        -0.461155         1.354195
