19
Iteration:   258
 C        -1.591928        -1.924939        -0.712320
 C        -1.273389        -0.420207        -1.008825
 C        -2.044002         0.555554        -1.913604
 C        -0.612263         0.321322        -2.145003
 C         0.385990         1.291694        -1.426547
 C         0.275578         1.012961         0.010848
 O        -0.928293         0.214628         0.205226
 C         1.568477         0.203491         0.520913
 O         2.685431         0.261535         0.028306
 H        -2.513413        -1.911400         0.075363
 H        -1.777618        -2.497061        -1.651806
 H        -0.792786        -2.347126         0.072149
 H        -2.875581         0.015459        -2.413532
 H        -2.372844         1.354764        -1.222076
 H        -0.240558        -0.242383        -2.989044
 H         1.362860         1.145718        -1.755260
 H         0.017756         2.306285        -1.617610
 H         0.281125         1.945684         0.607126
 H         1.301389        -0.383248         1.428265
