19
Iteration:  2172
 C        -1.577701        -1.901577        -0.720973
 C        -1.168924        -0.414232        -0.904770
 C        -2.065707         0.446412        -1.819415
 C        -0.557260         0.272277        -2.163325
 C         0.305604         1.433650        -1.609811
 C         0.312215         1.035423        -0.048298
 O        -0.852613         0.215170         0.269469
 C         1.452832         0.159794         0.416847
 O         2.616279         0.263236         0.203727
 H        -2.059039        -1.920595         0.179157
 H        -2.244276        -2.013586        -1.541339
 H        -0.658173        -2.636180        -0.856074
 H        -2.766226         0.054371        -2.562590
 H        -2.326016         1.452756        -1.543415
 H        -0.072703        -0.414614        -2.956967
 H         1.401455         1.429519        -2.045462
 H        -0.278926         2.401343        -1.399152
 H         0.334518         1.828318         0.585077
 H         1.044333        -0.733384         0.957837
