19
Iteration:   941
 C        -1.563766        -1.910650        -0.864697
 C        -1.275429        -0.413673        -0.870484
 C        -1.966308         0.539771        -1.799855
 C        -0.533311         0.248535        -2.107335
 C         0.492823         1.151208        -1.537085
 C         0.215819         1.104935        -0.029138
 O        -0.902903         0.193327         0.349565
 C         1.473389         0.308217         0.514345
 O         2.540353         0.292189         0.014105
 H        -2.499830        -2.088408        -0.179415
 H        -1.854766        -2.361975        -1.856882
 H        -0.715250        -2.430438        -0.498812
 H        -2.812703         0.335479        -2.416132
 H        -2.155542         1.430104        -1.239123
 H        -0.202704        -0.331786        -3.013356
 H         1.462577         0.998312        -1.858328
 H         0.102803         2.116570        -1.989126
 H         0.121301         2.142458         0.447894
 H         1.238533        -0.434665         1.306018
