19
Iteration:  4790charge 0 multiplicity 1
 C        -1.777287        -1.797990        -0.737331
 C        -1.427667        -0.420589        -1.054226
 C        -1.858407         0.531344        -2.175706
 C        -0.462298         0.042475        -2.327226
 C         0.604925         0.907344        -1.645117
 C         0.240590         0.947371        -0.126162
 O        -0.891386         0.070930         0.136821
 C         1.428224         0.478629         0.826250
 O         2.610824         0.691319         0.672330
 H        -2.712608        -2.095609        -1.376952
 H        -1.031350        -2.507975        -0.882381
 H        -2.047148        -1.898142         0.353877
 H        -2.678680         0.241091        -2.794422
 H        -2.009052         1.572517        -1.923172
 H        -0.165770        -0.758561        -2.993442
 H         1.607603         0.610740        -1.981095
 H         0.552230         1.919198        -2.050768
 H         0.046958         2.076629         0.130204
 H         0.954487        -0.128314         1.647058
