19
Iteration:   589charge 0 multiplicity 1
 C        -1.490515        -1.817758        -0.772075
 C        -1.282226        -0.367134        -0.881160
 C        -2.174368         0.480297        -1.885586
 C        -0.620481         0.288008        -2.116464
 C         0.322544         1.300870        -1.584285
 C         0.409666         1.055113        -0.054737
 O        -0.851868         0.222163         0.287050
 C         1.485114         0.271089         0.521118
 O         2.655381         0.108347         0.125883
 H        -2.390316        -2.272514        -0.284053
 H        -1.641231        -2.174850        -1.845012
 H        -0.597889        -2.298994        -0.382269
 H        -2.813270        -0.135718        -2.468705
 H        -2.457941         1.464158        -1.537207
 H        -0.406608        -0.281179        -3.032798
 H         1.280128         1.146714        -2.029854
 H        -0.114175         2.359295        -1.683191
 H         0.276457         1.926874         0.603087
 H         1.218868        -0.068098         1.521408
