19
Iteration:  3250charge 0 multiplicity 1
 C        -1.548076        -1.889012        -0.768257
 C        -1.394225        -0.383743        -0.973936
 C        -2.089209         0.479020        -1.941669
 C        -0.498006         0.230843        -2.111050
 C         0.447779         1.209794        -1.494537
 C         0.314269         0.970116         0.059562
 O        -0.929797         0.257184         0.203868
 C         1.470872         0.227283         0.594756
 O         2.633977         0.368922         0.124934
 H        -0.572741        -2.385851        -1.103195
 H        -1.730807        -2.118908         0.334840
 H        -2.321612        -2.239208        -1.418751
 H        -2.633378         0.031384        -2.805282
 H        -2.542276         1.413579        -1.583410
 H        -0.189988        -0.229905        -3.095568
 H         1.511096         1.157528        -1.827019
 H         0.197475         2.293082        -1.756579
 H         0.316262         1.946855         0.415157
 H         1.257200        -0.531492         1.391557
