19
Iteration:  3492
 C        -1.768768        -1.887635        -0.886560
 C        -1.272366        -0.459063        -0.986152
 C        -1.996476         0.611102        -1.728189
 C        -0.623374         0.167572        -2.179492
 C         0.481086         1.059717        -1.731408
 C         0.321995         0.983735        -0.207135
 O        -0.747559         0.039773         0.146306
 C         1.441410         0.451107         0.676145
 O         2.637938         0.526679         0.518478
 H        -1.510627        -2.222093         0.224486
 H        -2.838729        -1.992842        -1.017405
 H        -1.237258        -2.529981        -1.713504
 H        -2.644111         0.359842        -2.575236
 H        -2.253962         1.542510        -1.279952
 H        -0.326921        -0.255301        -3.156289
 H         1.409885         0.626042        -1.932909
 H         0.336296         2.040044        -2.129582
 H        -0.064062         2.000578         0.233152
 H         0.893812        -0.264729         1.423517
