19
Iteration:  4104
 C        -2.247555        -1.796045        -1.000280
 C        -1.431047        -0.484631        -1.085720
 C        -1.910089         0.678898        -1.931550
 C        -0.550014         0.081712        -2.217808
 C         0.638315         0.742536        -1.612786
 C         0.340838         0.890362        -0.141388
 O        -0.625364        -0.290458         0.194297
 C         1.518495         0.815697         0.832188
 O         2.722326         0.841481         0.543488
 H        -2.081488        -2.384641        -1.934749
 H        -1.774229        -2.327618        -0.197558
 H        -3.349105        -1.672330        -0.690022
 H        -2.681535         0.341601        -2.637767
 H        -1.848439         1.700985        -1.582875
 H        -0.455934        -0.472128        -3.118230
 H         1.576175         0.207416        -1.800402
 H         0.687574         1.803171        -1.866167
 H        -0.165200         1.701561         0.190138
 H         1.253277         0.627234         1.920186
