19
Iteration:  3978
 C        -2.172076        -1.773790        -0.956871
 C        -1.444048        -0.408793        -1.019376
 C        -1.981903         0.653382        -1.926121
 C        -0.622541        -0.060723        -2.168941
 C         0.689784         0.682558        -1.667401
 C         0.438023         0.882941        -0.216875
 O        -0.683115        -0.046118         0.146855
 C         1.689951         0.401931         0.467964
 O         2.549161         1.116357         0.940235
 H        -3.124563        -1.726451        -1.524052
 H        -1.608202        -2.602892        -1.590187
 H        -2.366590        -2.081469         0.061150
 H        -2.871516         0.376860        -2.462085
 H        -2.104455         1.675905        -1.681308
 H        -0.462787        -0.699750        -2.995231
 H         1.661689         0.073776        -1.934920
 H         0.991046         1.653471        -2.197412
 H         0.285741         1.848958         0.175010
 H         1.587164        -0.668852         0.822519
