19
Iteration:  2874
 C        -1.338947        -1.882976        -0.845333
 C        -1.262237        -0.367155        -0.872060
 C        -2.120007         0.470957        -1.852477
 C        -0.583673         0.259544        -2.048038
 C         0.361619         1.229630        -1.584487
 C         0.327161         1.059671        -0.025863
 O        -0.931969         0.400778         0.297520
 C         1.430189         0.134903         0.504383
 O         2.553601         0.210022         0.123661
 H        -2.139301        -2.225096        -0.281528
 H        -1.675036        -2.201445        -1.822920
 H        -0.445585        -2.470160        -0.666337
 H        -2.796493        -0.132688        -2.435720
 H        -2.344473         1.485841        -1.600266
 H        -0.337790        -0.490863        -2.828478
 H         1.449287         1.167410        -1.946002
 H         0.114540         2.267988        -2.077603
 H         0.416335         2.003158         0.467405
 H         1.040942        -0.542335         1.334292
