19
Iteration:  2145charge 0 multiplicity 1
 C        -1.539136        -1.886635        -0.795338
 C        -1.307271        -0.410459        -0.933030
 C        -2.164808         0.449371        -1.931509
 C        -0.565473         0.229496        -2.086617
 C         0.306382         1.337000        -1.510763
 C         0.318958         1.040609        -0.010596
 O        -0.866270         0.260316         0.269552
 C         1.520899         0.220831         0.507005
 O         2.728230         0.249792         0.122484
 H        -2.377912        -2.005261         0.049404
 H        -1.980064        -2.193561        -1.781814
 H        -0.679096        -2.386621        -0.538337
 H        -2.752244        -0.031212        -2.725504
 H        -2.516698         1.465236        -1.637153
 H        -0.213174        -0.219843        -3.006964
 H         1.276558         1.151609        -1.873881
 H        -0.091629         2.329731        -1.525067
 H         0.368041         2.014187         0.757597
 H         1.347953        -0.565463         1.327768
