19
Iteration:   668
 C        -1.354281        -1.734410        -0.638947
 C        -1.373643        -0.335773        -1.018866
 C        -2.101249         0.585349        -1.957877
 C        -0.578483         0.219371        -2.117306
 C         0.341076         1.206487        -1.435861
 C         0.254259         0.932200         0.108877
 O        -0.914239         0.257304         0.260595
 C         1.523780         0.130793         0.506727
 O         2.604316         0.235522        -0.050828
 H        -2.133985        -1.756617         0.204627
 H        -1.694945        -2.460553        -1.542812
 H        -0.293082        -2.076735        -0.412945
 H        -2.535552         0.036535        -2.862165
 H        -2.560169         1.577566        -1.759693
 H        -0.444265        -0.431865        -2.951237
 H         1.322329         1.199922        -1.752854
 H         0.198422         2.320932        -1.665171
 H         0.176863         1.774941         0.813383
 H         1.383485        -0.634615         1.394428
