19
Iteration:  1302charge 0 multiplicity 1
 C        -1.575392        -1.871494        -0.830011
 C        -1.347240        -0.394148        -0.967369
 C        -2.140640         0.487402        -1.880998
 C        -0.697986         0.314457        -2.124399
 C         0.432898         1.120800        -1.527716
 C         0.384130         0.806944        -0.021019
 O        -0.996573         0.281730         0.242440
 C         1.661459         0.203872         0.610601
 O         2.688623         0.465235         0.116753
 H        -2.084476        -1.947912         0.159520
 H        -2.145454        -2.264422        -1.548057
 H        -0.657129        -2.288031        -0.628071
 H        -2.788492         0.061213        -2.679561
 H        -2.382028         1.534015        -1.480068
 H        -0.333657        -0.218648        -3.030136
 H         1.509769         0.962513        -1.883693
 H         0.415569         2.238467        -1.541062
 H         0.428562         1.819115         0.435983
 H         1.356389        -0.374852         1.524947
