19
Iteration:   820
 C        -1.369691        -1.859751        -0.805997
 C        -1.328854        -0.322785        -0.915380
 C        -2.123448         0.501886        -1.868404
 C        -0.490423         0.180795        -2.037080
 C         0.354400         1.296728        -1.579157
 C         0.310243         1.130758        -0.012620
 O        -0.878517         0.272358         0.313707
 C         1.406201         0.162775         0.464452
 O         2.573233         0.175332         0.075213
 H        -1.933196        -2.026238         0.104946
 H        -1.865621        -2.274018        -1.710250
 H        -0.439640        -2.215905        -0.697404
 H        -2.852714        -0.010268        -2.510737
 H        -2.464584         1.493231        -1.471901
 H        -0.248751        -0.471975        -2.866731
 H         1.338068         0.980190        -1.678642
 H         0.060489         2.381050        -1.879885
 H         0.259499         2.110829         0.652232
 H         0.932238        -0.730383         1.074499
