19
Iteration:   286
 C        -1.544100        -1.847091        -0.859285
 C        -1.352387        -0.352962        -0.857544
 C        -2.129596         0.405717        -1.987832
 C        -0.598261         0.240974        -1.989141
 C         0.430471         1.306311        -1.489241
 C         0.341613         0.959314         0.016068
 O        -0.941578         0.362753         0.302186
 C         1.559660         0.117584         0.536954
 O         2.650553         0.308485        -0.009093
 H        -2.423642        -1.985742        -0.391636
 H        -1.649693        -2.141572        -1.908961
 H        -0.794669        -2.400751        -0.426445
 H        -2.749204        -0.270667        -2.606421
 H        -2.550145         1.248836        -1.379062
 H        -0.245524        -0.441444        -2.769000
 H         1.483184         1.004915        -1.891303
 H         0.138147         2.328528        -1.776238
 H         0.519565         1.823812         0.695577
 H         1.439463        -0.373007         1.511161
