19
Iteration:  2234
 C        -1.444134        -1.774251        -0.788866
 C        -1.383100        -0.312526        -0.892906
 C        -2.131473         0.460456        -1.923998
 C        -0.627360         0.295758        -2.125033
 C         0.331732         1.217266        -1.557798
 C         0.363177         0.844385         0.037210
 O        -0.971899         0.364482         0.283147
 C         1.594349        -0.028250         0.359596
 O         2.656743         0.433086         0.203255
 H        -2.153158        -2.338068         0.028910
 H        -1.674885        -2.374834        -1.689308
 H        -0.537260        -2.147260        -0.375280
 H        -2.612243        -0.176120        -2.697556
 H        -2.536470         1.425745        -1.611620
 H        -0.237357        -0.484857        -2.737512
 H         1.350755         1.081766        -1.798599
 H         0.232337         2.305176        -1.577122
 H         0.391242         1.964804         0.580628
 H         1.377748        -0.955261         0.985987
