19
Iteration:   552
 C        -1.492475        -1.885165        -0.669321
 C        -1.252747        -0.416403        -0.989745
 C        -2.035763         0.583985        -1.875733
 C        -0.655594         0.281521        -2.206176
 C         0.403459         1.216733        -1.433610
 C         0.266470         1.012599         0.042358
 O        -0.974474         0.211392         0.243002
 C         1.541901         0.280872         0.575853
 O         2.615250         0.190381        -0.039261
 H        -2.190478        -2.013551         0.092038
 H        -1.801942        -2.342548        -1.539282
 H        -0.500371        -2.275041        -0.502253
 H        -2.815014         0.087900        -2.524125
 H        -2.327663         1.533383        -1.390637
 H        -0.353581        -0.086646        -3.187368
 H         1.467189         1.053486        -1.921059
 H         0.309843         2.317382        -1.690817
 H         0.215930         1.976238         0.623583
 H         1.437630        -0.091395         1.638324
