19
Iteration:  1558charge 0 multiplicity 1
 C        -1.495064        -1.862638        -0.814990
 C        -1.274356        -0.382963        -0.831279
 C        -2.034479         0.438632        -1.820605
 C        -0.613090         0.260235        -2.073454
 C         0.394051         1.291186        -1.541777
 C         0.325368         1.024918        -0.049052
 O        -0.878262         0.301396         0.253736
 C         1.389685         0.140183         0.397265
 O         2.633421         0.326178         0.129627
 H        -2.465215        -2.086967        -0.471987
 H        -1.533325        -2.379474        -1.804208
 H        -0.745611        -2.461992        -0.181431
 H        -2.738066        -0.022315        -2.479759
 H        -2.347400         1.368289        -1.326374
 H        -0.307005        -0.397111        -2.926202
 H         1.445461         1.084335        -1.839127
 H        -0.032460         2.305909        -1.792628
 H         0.223460         1.890574         0.646109
 H         1.116695        -0.765030         1.038145
