19
Iteration:  3346charge 0 multiplicity 1
 C        -1.745020        -1.890685        -0.832852
 C        -1.337997        -0.427292        -1.016078
 C        -2.143426         0.500530        -1.967913
 C        -0.589947         0.242604        -2.178371
 C         0.379192         1.214542        -1.584770
 C         0.382719         0.952522        -0.105958
 O        -0.806456         0.097933         0.167511
 C         1.552415         0.358034         0.685474
 O         2.767702         0.438122         0.389842
 H        -2.220315        -2.392248        -1.722048
 H        -0.866492        -2.519079        -0.297396
 H        -2.458522        -1.851957         0.011514
 H        -2.973420         0.065106        -2.582164
 H        -2.375848         1.519766        -1.626720
 H        -0.247189        -0.378490        -3.041547
 H         1.320625         1.119237        -2.144306
 H         0.208486         2.257607        -1.698353
 H         0.095900         1.824838         0.780733
 H         1.175859        -0.140843         1.597544
