19
Iteration:  3050charge 0 multiplicity 1
 C        -1.313589        -1.874320        -0.718152
 C        -1.266134        -0.380240        -0.952421
 C        -2.102845         0.394341        -1.888933
 C        -0.554079         0.311192        -2.122368
 C         0.353078         1.424167        -1.498663
 C         0.279347         1.080780         0.035084
 O        -0.943362         0.360278         0.288480
 C         1.505600         0.211956         0.532352
 O         2.529443         0.009121        -0.031396
 H        -2.337973        -2.141470        -0.821710
 H        -0.623595        -2.445371        -1.431818
 H        -1.129521        -2.329192         0.288275
 H        -2.833520        -0.137476        -2.504055
 H        -2.441647         1.401229        -1.695919
 H        -0.420234        -0.208359        -3.046744
 H         1.432124         1.361200        -1.811760
 H        -0.088999         2.463540        -1.549602
 H         0.186622         2.051153         0.660934
 H         1.063506        -0.459118         1.340015
