19
Iteration:  2412
 C        -1.688542        -1.900999        -0.782240
 C        -1.343897        -0.431983        -1.038045
 C        -2.081870         0.519550        -1.848962
 C        -0.654493         0.250924        -2.158920
 C         0.288964         1.311075        -1.621515
 C         0.326817         1.021765        -0.083511
 O        -0.762611         0.102991         0.245491
 C         1.548984         0.343279         0.625447
 O         2.766733         0.292809         0.242921
 H        -2.301691        -1.939979         0.207831
 H        -2.183147        -2.641004        -1.456064
 H        -0.662655        -2.448816        -0.614342
 H        -2.897667         0.287433        -2.520188
 H        -2.276017         1.512018        -1.532262
 H        -0.476130        -0.194574        -3.121559
 H         1.297999         1.237495        -2.012833
 H         0.059074         2.315841        -1.843107
 H         0.360385         1.837808         0.582905
 H         1.273501        -0.182527         1.576311
