19
Iteration:  1709
 C        -1.335203        -1.825974        -0.715535
 C        -1.347995        -0.370631        -0.979150
 C        -2.091567         0.474496        -1.974374
 C        -0.618400         0.316752        -2.104235
 C         0.450457         1.241303        -1.428018
 C         0.237059         0.989664         0.085173
 O        -1.015742         0.273937         0.338046
 C         1.536954         0.343630         0.620419
 O         2.580279         0.121378        -0.146480
 H        -2.058550        -2.249664        -0.021785
 H        -1.428641        -2.227943        -1.760606
 H        -0.371716        -2.297989        -0.532845
 H        -2.676928        -0.122715        -2.681022
 H        -2.523881         1.390978        -1.632045
 H        -0.337346        -0.197109        -3.042081
 H         1.427291         0.962660        -1.690540
 H         0.378169         2.266125        -1.719471
 H         0.145849         1.879046         0.565124
 H         1.429503        -0.274897         1.584180
