19
Iteration:  2334charge 0 multiplicity 1
 C        -1.603775        -1.869985        -0.855008
 C        -1.431111        -0.418669        -1.011408
 C        -2.098458         0.553124        -1.921406
 C        -0.566586         0.193790        -2.108115
 C         0.393843         1.223757        -1.518134
 C         0.279295         0.977660         0.020892
 O        -0.925314         0.224153         0.346786
 C         1.589843         0.230582         0.570823
 O         2.751192         0.399180         0.050963
 H        -2.306109        -2.195647         0.070160
 H        -2.156763        -2.395467        -1.598924
 H        -0.665680        -2.490707        -0.648763
 H        -2.743366         0.149418        -2.665461
 H        -2.286084         1.544161        -1.522533
 H        -0.130473        -0.516382        -2.859011
 H         1.418020         1.052541        -1.766606
 H         0.011725         2.166263        -1.812028
 H         0.364976         1.708462         0.879228
 H         1.525681        -0.189192         1.612249
