19
Iteration:  2389
 C        -1.645022        -1.855558        -0.790186
 C        -1.267080        -0.442640        -0.972434
 C        -2.057327         0.510408        -1.854040
 C        -0.618181         0.248901        -2.103702
 C         0.430671         1.209080        -1.524780
 C         0.303625         1.050473        -0.078453
 O        -0.834327         0.123905         0.243812
 C         1.508782         0.318712         0.597079
 O         2.649837         0.362518         0.116625
 H        -2.117565        -2.016778         0.301731
 H        -2.458306        -2.082491        -1.492905
 H        -0.843266        -2.597676        -1.102642
 H        -2.899243         0.176943        -2.411699
 H        -2.375381         1.440281        -1.431047
 H        -0.206241        -0.359722        -2.916918
 H         1.457096         1.116009        -1.799357
 H         0.221650         2.210858        -1.796573
 H         0.126518         1.873695         0.533970
 H         1.189996        -0.531349         1.253991
