19
Iteration:  1042
 C        -1.549375        -1.884231        -0.821401
 C        -1.231801        -0.355411        -0.886425
 C        -2.085970         0.477701        -1.834365
 C        -0.612287         0.305976        -2.128590
 C         0.406586         1.164894        -1.534381
 C         0.277184         1.030467        -0.032025
 O        -0.877039         0.255241         0.303877
 C         1.441159         0.171964         0.442804
 O         2.650874         0.393418         0.148976
 H        -2.463822        -2.086184        -0.157015
 H        -1.978976        -2.202341        -1.748884
 H        -0.659376        -2.528045        -0.537394
 H        -2.814553        -0.107466        -2.405335
 H        -2.464134         1.414461        -1.365155
 H        -0.386744        -0.379448        -2.931405
 H         1.367282         0.675341        -1.816610
 H         0.593604         2.228230        -2.043133
 H         0.458639         1.984774         0.474265
 H         1.223698        -0.819303         1.010961
