19
Iteration:  3561charge 0 multiplicity 1
 C        -1.830028        -1.869566        -1.089654
 C        -1.376397        -0.434000        -1.067906
 C        -2.022655         0.602633        -1.836599
 C        -0.583098         0.122152        -2.135310
 C         0.611923         0.826741        -1.645367
 C         0.318747         0.942313        -0.009366
 O        -0.787731         0.008325         0.238097
 C         1.531695         0.631208         0.884213
 O         2.589758         0.657795         0.319550
 H        -1.112525        -2.547578        -1.476492
 H        -2.090497        -2.291001        -0.105959
 H        -2.777324        -1.930157        -1.682014
 H        -2.850342         0.466238        -2.551844
 H        -2.023827         1.647597        -1.381238
 H        -0.463676        -0.389898        -3.096159
 H         1.420608         0.053216        -1.660238
 H         0.832003         1.776417        -2.226531
 H         0.031420         2.018920         0.336357
 H         1.406384         0.170075         1.919416
