19
Iteration:  1731charge 0 multiplicity 1
 C        -1.345170        -1.886973        -0.820174
 C        -1.300843        -0.359022        -0.930608
 C        -2.131811         0.459210        -1.872070
 C        -0.629522         0.300836        -2.059112
 C         0.382580         1.280403        -1.477783
 C         0.310263         1.057978         0.031042
 O        -0.945598         0.318173         0.257877
 C         1.479521         0.252549         0.588538
 O         2.559563         0.120386        -0.069147
 H        -2.267086        -2.204879        -0.268182
 H        -1.109604        -2.488472        -1.745530
 H        -0.529127        -2.339102        -0.216749
 H        -2.744683         0.005401        -2.650935
 H        -2.429714         1.423949        -1.521789
 H        -0.150209        -0.405103        -2.724409
 H         1.377773         1.111382        -1.781892
 H         0.196951         2.291250        -1.746121
 H         0.367941         1.886556         0.598566
 H         1.276794        -0.073183         1.700592
