19
Iteration:  2338
 C        -1.611420        -1.883027        -0.864533
 C        -1.437076        -0.422072        -1.004263
 C        -2.071008         0.536375        -1.905956
 C        -0.566688         0.178919        -2.083944
 C         0.381748         1.186009        -1.503939
 C         0.301669         0.964811         0.043875
 O        -0.938299         0.240236         0.336540
 C         1.580236         0.254722         0.558350
 O         2.743879         0.402884         0.034640
 H        -2.122680        -2.003792        -0.021223
 H        -2.205699        -2.418231        -1.658308
 H        -0.649012        -2.459114        -0.780110
 H        -2.822258         0.317687        -2.724130
 H        -2.284262         1.550166        -1.541381
 H        -0.084052        -0.487092        -2.768755
 H         1.480060         0.997568        -1.831338
 H         0.133989         2.277268        -1.763244
 H         0.194000         1.861319         0.911881
 H         1.542340        -0.228389         1.548507
