19
Iteration:  1100
 C        -1.532518        -1.813579        -0.752038
 C        -1.358189        -0.320055        -0.974318
 C        -2.235543         0.464911        -1.874224
 C        -0.658897         0.274417        -2.177986
 C         0.350651         1.237608        -1.606020
 C         0.398602         0.861872        -0.066760
 O        -0.869792         0.231824         0.269958
 C         1.549467         0.101393         0.517588
 O         2.764092         0.412621         0.274515
 H        -2.292121        -1.940873        -0.071869
 H        -1.633506        -2.368777        -1.697213
 H        -0.683418        -2.242136        -0.197106
 H        -3.014404         0.083436        -2.571879
 H        -2.441254         1.519130        -1.545755
 H        -0.525657        -0.337578        -3.081597
 H         1.429923         1.233321        -2.185021
 H        -0.202068         2.298004        -1.729303
 H         0.597396         1.890945         0.470790
 H         1.300530        -0.639864         1.295728
