19
Iteration:  2044charge 0 multiplicity 1
 C        -1.624747        -1.858809        -0.791670
 C        -1.262188        -0.456679        -0.972530
 C        -2.151839         0.430432        -1.888712
 C        -0.558519         0.262855        -2.127862
 C         0.196037         1.377566        -1.573897
 C         0.361473         1.027507        -0.018221
 O        -0.820008         0.241816         0.236143
 C         1.584772         0.218178         0.582794
 O         2.696655         0.230896         0.186736
 H        -2.290971        -2.098311         0.039726
 H        -2.069969        -2.218713        -1.719262
 H        -0.658848        -2.340663        -0.590233
 H        -2.878403        -0.052891        -2.529255
 H        -2.401220         1.455354        -1.686131
 H        -0.188905        -0.274015        -3.062123
 H         1.236372         1.463583        -1.840549
 H        -0.135589         2.340819        -1.778642
 H         0.514549         2.022333         0.568871
 H         1.314262        -0.393385         1.502614
