19
Iteration:  2473charge 0 multiplicity 1
 C        -1.555286        -1.941886        -0.910775
 C        -1.341954        -0.456816        -0.901203
 C        -2.157780         0.595745        -1.725939
 C        -0.703961         0.267477        -2.065934
 C         0.526521         1.075554        -1.623103
 C         0.272224         1.000966        -0.064550
 O        -0.839751         0.249084         0.262751
 C         1.516580         0.311644         0.518852
 O         2.713985         0.381905         0.173338
 H        -2.594934        -2.126767        -0.623280
 H        -1.477215        -2.174992        -1.927041
 H        -0.932699        -2.426943        -0.277051
 H        -2.768906         0.194328        -2.542877
 H        -2.404491         1.570815        -1.282011
 H        -0.672089        -0.286827        -3.044588
 H         1.547305         0.655803        -1.716600
 H         0.372475         2.132889        -2.086609
 H         0.078630         1.946929         0.578797
 H         1.196215        -0.325562         1.408721
