19
Iteration:  3338charge 0 multiplicity 1
 C        -1.744352        -1.857821        -0.770236
 C        -1.342680        -0.398379        -1.034803
 C        -2.120854         0.487473        -1.952979
 C        -0.623111         0.234238        -2.212927
 C         0.368937         1.289982        -1.615071
 C         0.358117         0.869550        -0.051548
 O        -0.802626         0.107615         0.143612
 C         1.588992         0.350150         0.688413
 O         2.751887         0.422774         0.404459
 H        -1.910134        -2.473941        -1.725993
 H        -0.880496        -2.334452        -0.357123
 H        -2.631175        -2.054618        -0.191618
 H        -2.816227        -0.091087        -2.540331
 H        -2.478210         1.413542        -1.547317
 H        -0.320006        -0.215756        -3.136673
 H         1.324902         0.950511        -1.966872
 H         0.225221         2.350938        -1.900668
 H         0.186501         1.807696         0.493463
 H         1.302551        -0.056148         1.686222
