19
Iteration:    79charge 0 multiplicity 1
 C        -1.864398        -1.832163        -0.913989
 C        -1.366828        -0.428085        -0.975175
 C        -2.209065         0.673172        -1.860860
 C        -0.768149         0.244570        -2.080590
 C         0.395965         1.084060        -1.618093
 C         0.431260         0.871527        -0.091618
 O        -0.659267        -0.045220         0.220609
 C         1.690170         0.567292         0.694859
 O         2.787807         0.404542         0.267544
 H        -2.582474        -2.116939        -0.161870
 H        -2.235492        -2.206174        -1.948618
 H        -1.032382        -2.549716        -0.752367
 H        -2.881817         0.209634        -2.531908
 H        -2.584257         1.499811        -1.314936
 H        -0.581181        -0.216858        -3.064545
 H         1.252695         0.729890        -2.052686
 H         0.271664         2.098844        -1.862988
 H         0.157135         1.778732         0.401350
 H         1.471606         0.339948         1.817230
