19
Iteration:  1840charge 0 multiplicity 1
 C        -1.403531        -1.920389        -0.793998
 C        -1.292450        -0.352048        -0.885652
 C        -2.009140         0.472740        -1.927016
 C        -0.534142         0.252573        -2.010867
 C         0.404649         1.253230        -1.435150
 C         0.299120         1.032313         0.049255
 O        -1.011521         0.350851         0.272696
 C         1.427650         0.191205         0.521670
 O         2.553515         0.255823        -0.087256
 H        -1.928768        -2.217366         0.204776
 H        -2.063869        -2.426604        -1.546362
 H        -0.383701        -2.365196        -0.853164
 H        -2.616824        -0.026161        -2.666615
 H        -2.173087         1.520398        -1.676015
 H        -0.183265        -0.359651        -2.840903
 H         1.353257         0.964111        -1.743689
 H         0.184009         2.247421        -1.686481
 H         0.051442         2.043196         0.647655
 H         1.377287        -0.751335         1.160578
