19
Iteration:   578charge 0 multiplicity 1
 C        -1.459654        -1.862726        -0.745804
 C        -1.382881        -0.375622        -0.951396
 C        -2.125119         0.531404        -1.937968
 C        -0.719460         0.257353        -2.042073
 C         0.380389         1.345738        -1.527741
 C         0.353239         1.001182        -0.094445
 O        -0.839737         0.187534         0.250065
 C         1.569734         0.277794         0.594126
 O         2.623755         0.128933         0.079878
 H        -2.304463        -2.029617        -0.010791
 H        -1.498743        -2.429920        -1.752941
 H        -0.547766        -2.170562        -0.231064
 H        -2.822498         0.279969        -2.673173
 H        -2.434284         1.453346        -1.493494
 H        -0.287109        -0.456396        -2.753378
 H         1.306046         1.310841        -2.059864
 H         0.105711         2.464830        -1.662261
 H         0.279272         1.964961         0.439723
 H         1.266350        -0.077492         1.567018
