19
Iteration:  3906charge 0 multiplicity 1
 C        -2.188671        -1.712128        -0.775720
 C        -1.333514        -0.418314        -1.075569
 C        -1.927394         0.678627        -1.840529
 C        -0.631498         0.114267        -2.385846
 C         0.723326         0.579317        -1.847498
 C         0.479022         0.737071        -0.299592
 O        -0.655385        -0.167319         0.133764
 C         1.730440         0.385062         0.522437
 O         2.345766         1.227062         1.106586
 H        -2.910944        -1.499738         0.094425
 H        -2.765409        -1.961135        -1.604501
 H        -1.581602        -2.501668        -0.444354
 H        -2.815672         0.364199        -2.455692
 H        -2.203738         1.730901        -1.503636
 H        -0.672848        -0.351176        -3.399201
 H         1.482748        -0.097961        -2.002435
 H         1.063615         1.393667        -2.415591
 H         0.244936         1.833877        -0.145844
 H         1.901949        -0.732694         0.675905
