19
Iteration:    89charge 0 multiplicity 1
 C        -1.841481        -1.883331        -0.916111
 C        -1.326544        -0.430564        -0.953440
 C        -2.168250         0.606166        -1.773915
 C        -0.734362         0.301220        -2.173322
 C         0.399588         1.148242        -1.634173
 C         0.361054         0.947250        -0.123381
 O        -0.723368        -0.054675         0.254562
 C         1.642096         0.518767         0.620856
 O         2.839820         0.367824         0.299526
 H        -2.666948        -1.866102        -0.235014
 H        -2.297049        -2.123331        -1.903491
 H        -1.074071        -2.564818        -0.600420
 H        -2.982450         0.109515        -2.205252
 H        -2.400331         1.583390        -1.377701
 H        -0.530401        -0.266351        -3.096201
 H         1.273623         0.746418        -2.024509
 H         0.410389         2.098238        -1.889503
 H         0.119544         1.840193         0.386032
 H         1.319261         0.416720         1.715314
