19
Iteration:  3491
 C        -1.766222        -1.873585        -0.889246
 C        -1.270419        -0.464931        -0.984678
 C        -1.995355         0.610657        -1.729474
 C        -0.619593         0.163676        -2.173033
 C         0.474413         1.060811        -1.733527
 C         0.320233         1.003242        -0.213522
 O        -0.754313         0.029828         0.148920
 C         1.451227         0.448809         0.666352
 O         2.635402         0.523532         0.524404
 H        -1.526299        -2.226528         0.246506
 H        -2.867717        -2.010165        -1.035250
 H        -1.233923        -2.525891        -1.693475
 H        -2.597909         0.355868        -2.586477
 H        -2.272001         1.517026        -1.270620
 H        -0.353425        -0.260374        -3.138368
 H         1.413373         0.641774        -1.927402
 H         0.347923         2.048963        -2.110002
 H        -0.041998         1.965208         0.218764
 H         0.915355        -0.257849         1.407893
