19
Iteration:   163charge 0 multiplicity 1
 C        -1.553354        -1.872666        -0.934528
 C        -1.295436        -0.381576        -0.995225
 C        -2.165272         0.625640        -1.786184
 C        -0.711753         0.269609        -2.130922
 C         0.395976         1.028434        -1.477722
 C         0.294042         1.007325        -0.006031
 O        -0.866020         0.121173         0.242102
 C         1.633862         0.416814         0.695919
 O         2.664422         0.271717         0.038470
 H        -2.199973        -1.917233        -0.067559
 H        -2.084548        -2.250142        -1.722497
 H        -0.643743        -2.381412        -0.732642
 H        -2.887618         0.290202        -2.502822
 H        -2.283000         1.614918        -1.395064
 H        -0.440001        -0.349297        -2.989364
 H         1.429677         0.604171        -1.850112
 H         0.396865         2.155700        -1.824062
 H         0.170504         1.972745         0.550636
 H         1.592682         0.328900         1.845574
