19
Iteration:  4089
 C        -2.268679        -1.885957        -1.004979
 C        -1.370820        -0.517187        -1.036970
 C        -1.940202         0.680149        -1.859818
 C        -0.603416         0.036768        -2.236439
 C         0.651076         0.836329        -1.691536
 C         0.355493         0.797927        -0.153519
 O        -0.609617        -0.145694         0.101581
 C         1.530094         0.717376         0.897108
 O         2.730039         0.885264         0.614043
 H        -2.320638        -2.487576        -1.953109
 H        -2.085458        -2.411445        -0.084134
 H        -3.254951        -1.624050        -0.996184
 H        -2.859049         0.483329        -2.461765
 H        -1.991286         1.736678        -1.423827
 H        -0.407253        -0.592122        -3.166963
 H         1.527440         0.224867        -1.955922
 H         0.927301         1.696263        -2.271695
 H         0.083005         1.965366         0.121389
 H         1.233904         0.676450         1.978192
