19
Iteration:  2488charge 0 multiplicity 1
 C        -1.570622        -1.897920        -0.894959
 C        -1.365907        -0.374451        -0.956913
 C        -2.075217         0.625899        -1.721712
 C        -0.609919         0.229480        -2.077047
 C         0.457350         1.055227        -1.568193
 C         0.366531         0.964420        -0.080502
 O        -0.890648         0.187909         0.265215
 C         1.465355         0.247587         0.585017
 O         2.617751         0.466862         0.089952
 H        -2.559978        -2.273693        -0.293581
 H        -1.408093        -2.387574        -1.912836
 H        -0.649929        -2.212820        -0.259867
 H        -2.868759         0.297876        -2.387315
 H        -2.235387         1.508183        -1.112585
 H        -0.482108        -0.337235        -2.975977
 H         1.317252         0.530593        -1.953211
 H         0.496914         2.100822        -1.830379
 H         0.408312         2.037170         0.334070
 H         1.336127        -0.452056         1.468417
