19
Iteration:  2466charge 0 multiplicity 1
 C        -1.583236        -1.976437        -0.890017
 C        -1.326553        -0.411077        -0.923729
 C        -2.189667         0.558421        -1.767131
 C        -0.705041         0.297097        -2.106602
 C         0.489935         1.099603        -1.645616
 C         0.314495         1.074799        -0.068624
 O        -0.861707         0.209920         0.274099
 C         1.539843         0.348625         0.561287
 O         2.751752         0.344787         0.201323
 H        -2.770488        -2.133271        -0.636786
 H        -1.429798        -2.109060        -1.983938
 H        -0.874857        -2.633755        -0.254696
 H        -2.964296         0.143764        -2.419570
 H        -2.385429         1.446299        -1.220639
 H        -0.639385        -0.375664        -2.931964
 H         1.443120         0.655049        -1.911636
 H         0.432470         2.135374        -1.884686
 H         0.263838         1.988120         0.581326
 H         1.215543        -0.394897         1.333372
