19
Iteration:   485charge 0 multiplicity 1
 C        -1.551469        -1.792081        -0.754299
 C        -1.285411        -0.355758        -0.940808
 C        -2.050422         0.474630        -1.899684
 C        -0.568060         0.157794        -2.094919
 C         0.262612         1.386838        -1.540129
 C         0.339367         1.003316        -0.035228
 O        -0.950047         0.192216         0.281946
 C         1.596784         0.221422         0.559850
 O         2.685854         0.165189         0.044932
 H        -2.280948        -1.841577         0.018913
 H        -1.885107        -2.293326        -1.660655
 H        -0.621833        -2.278507        -0.500538
 H        -2.938185        -0.014300        -2.458850
 H        -2.359698         1.579332        -1.652410
 H        -0.313142        -0.406050        -3.004169
 H         1.425890         1.672282        -1.847750
 H        -0.263507         2.349208        -1.764814
 H         0.168599         1.832816         0.697349
 H         1.380550         0.001204         1.590347
