19
Iteration:  3530
 C        -1.706625        -1.869191        -0.962051
 C        -1.425755        -0.428804        -1.070223
 C        -2.106788         0.624814        -1.886295
 C        -0.612309         0.258084        -2.129972
 C         0.543248         0.861721        -1.583698
 C         0.264494         0.845138        -0.074864
 O        -0.825168         0.026724         0.173145
 C         1.557536         0.591521         0.765609
 O         2.728457         0.587618         0.417115
 H        -0.972163        -2.386597        -0.480297
 H        -2.645127        -2.025796        -0.376397
 H        -1.850507        -2.320147        -1.878575
 H        -2.763125         0.239417        -2.672521
 H        -2.342020         1.649287        -1.515828
 H        -0.567001        -0.186737        -3.092699
 H         1.444344         0.191964        -1.863769
 H         0.814038         1.816292        -2.133595
 H        -0.072329         1.949533         0.279539
 H         1.343910         0.132096         1.786304
