19
Iteration:   238
 C        -1.609742        -1.856170        -0.698713
 C        -1.292362        -0.420575        -1.002592
 C        -2.095874         0.565884        -1.804286
 C        -0.543117         0.270528        -2.101549
 C         0.380142         1.383866        -1.583578
 C         0.291658         0.986506        -0.044221
 O        -0.790354         0.070418         0.263869
 C         1.474544         0.227480         0.535646
 O         2.579637         0.262355         0.076918
 H        -2.356496        -1.911469         0.226693
 H        -1.780594        -2.343516        -1.645221
 H        -0.599733        -2.214985        -0.195455
 H        -2.390155         0.284180        -2.779455
 H        -2.185825         1.569259        -1.596619
 H        -0.343830        -0.254364        -3.040835
 H         1.383528         1.219881        -2.066018
 H        -0.094393         2.448957        -1.749565
 H         0.361154         1.883569         0.640953
 H         1.116336        -0.420593         1.331578
