19
Iteration:  1689charge 0 multiplicity 1
 C        -1.415310        -1.903290        -0.767105
 C        -1.302632        -0.385633        -0.994991
 C        -2.068775         0.461092        -1.900086
 C        -0.556791         0.274052        -2.055281
 C         0.369666         1.337651        -1.444443
 C         0.317479         1.031632         0.042157
 O        -0.919928         0.295810         0.255913
 C         1.441606         0.224362         0.596321
 O         2.535379         0.170783        -0.080152
 H        -1.867150        -1.980669         0.120208
 H        -1.927741        -2.462181        -1.553325
 H        -0.370584        -2.332704        -0.605246
 H        -2.753891        -0.030527        -2.592112
 H        -2.379109         1.409010        -1.526109
 H        -0.265042        -0.407234        -2.839632
 H         1.390725         1.196348        -1.875549
 H         0.171293         2.362116        -1.801715
 H         0.113100         1.935076         0.724130
 H         1.612861        -0.150537         1.599269
