19
Iteration:  3544
 C        -1.785885        -1.918398        -1.038016
 C        -1.382578        -0.416251        -1.003085
 C        -2.065685         0.648279        -1.908227
 C        -0.673872         0.219494        -2.196472
 C         0.632395         0.820792        -1.507345
 C         0.268219         0.923229        -0.079871
 O        -0.850737         0.014323         0.238373
 C         1.566713         0.569127         0.727248
 O         2.708420         0.630576         0.378676
 H        -0.808001        -2.502978        -1.080228
 H        -2.398149        -2.123724        -0.126058
 H        -2.353403        -2.102348        -1.936831
 H        -2.767299         0.175968        -2.574313
 H        -2.400389         1.557571        -1.501641
 H        -0.402479        -0.409110        -3.026038
 H         1.466463         0.114030        -1.640068
 H         0.983507         1.853219        -1.670067
 H        -0.011883         1.957370         0.169667
 H         1.263321         0.495289         1.778425
