19
Iteration:  4604charge 0 multiplicity 1
 C        -2.225980        -1.806041        -1.025151
 C        -1.438972        -0.443417        -1.083888
 C        -1.923508         0.800102        -1.799876
 C        -0.656889         0.041953        -2.264809
 C         0.703715         0.554630        -1.741727
 C         0.398724         0.673579        -0.146265
 O        -0.672860        -0.275318         0.100923
 C         1.598296         0.573935         0.762285
 O         2.657246         1.268806         0.785482
 H        -2.576371        -2.015950         0.095332
 H        -2.964436        -1.809706        -1.809425
 H        -1.630977        -2.735465        -1.208388
 H        -2.740064         0.726395        -2.490279
 H        -1.825839         1.744152        -1.283028
 H        -0.636451        -0.339137        -3.264995
 H         1.646307        -0.009261        -2.066985
 H         0.981498         1.548769        -2.125460
 H         0.071424         1.744358         0.112269
 H         1.473740         0.008331         1.657486
