19
Iteration:  4941
 C        -1.703647        -1.892361        -0.862564
 C        -1.305856        -0.465489        -0.991229
 C        -1.888015         0.355756        -2.225403
 C        -0.377957        -0.042537        -2.082528
 C         0.609454         1.053876        -1.632640
 C         0.237930         1.081662        -0.165098
 O        -0.968196         0.407615         0.107373
 C         1.359183         0.530511         0.822236
 O         2.542215         0.436023         0.650040
 H        -1.088301        -2.356512         0.019630
 H        -2.860100        -2.001287        -0.741571
 H        -1.460351        -2.477346        -1.742624
 H        -2.554734         0.036941        -2.998074
 H        -2.058984         1.384614        -1.951276
 H        -0.099837        -0.849970        -2.836314
 H         1.699759         0.737784        -1.724874
 H         0.290260         1.969201        -2.079490
 H         0.045747         2.097599         0.110110
 H         0.730705        -0.001031         1.675723
