19
Iteration:  3448charge 0 multiplicity 1
 C        -1.791810        -1.835579        -0.870233
 C        -1.347769        -0.413476        -1.036047
 C        -2.038379         0.524028        -1.954686
 C        -0.626598         0.177614        -2.160357
 C         0.438358         1.062276        -1.584942
 C         0.370977         0.877592        -0.050670
 O        -0.832655         0.100162         0.159886
 C         1.604485         0.311260         0.739051
 O         2.699685         0.620913         0.397071
 H        -2.432289        -1.879745         0.083466
 H        -2.357838        -2.024640        -1.756796
 H        -0.865672        -2.483747        -0.875859
 H        -2.676955         0.057529        -2.676437
 H        -2.351606         1.474822        -1.604439
 H        -0.557248        -0.368511        -3.075252
 H         1.359667         0.774887        -2.002445
 H         0.178073         2.062851        -1.870473
 H         0.262457         2.009596         0.332378
 H         1.269434        -0.118183         1.745318
