19
Iteration:   139charge 0 multiplicity 1
 C        -1.649666        -1.911596        -0.829632
 C        -1.348615        -0.385964        -0.927112
 C        -2.106354         0.652944        -1.718505
 C        -0.661370         0.312796        -2.166792
 C         0.503063         1.137621        -1.631499
 C         0.259648         1.002839        -0.096938
 O        -0.682051         0.001492         0.286831
 C         1.486924         0.383580         0.586084
 O         2.584303         0.320117         0.128239
 H        -2.454581        -2.239658        -0.066548
 H        -1.917951        -2.312754        -1.814384
 H        -0.603630        -2.228448        -0.555869
 H        -2.827628         0.442019        -2.507079
 H        -2.218689         1.688498        -1.278204
 H        -0.567042        -0.262320        -3.067389
 H         1.572213         0.667616        -1.826687
 H         0.597597         2.327523        -1.979837
 H         0.032708         1.998832         0.435017
 H         1.153008        -0.056675         1.621987
