19
Iteration:  3255
 C        -1.510725        -1.921934        -0.816360
 C        -1.356182        -0.328937        -0.932083
 C        -2.085772         0.473037        -1.915957
 C        -0.524534         0.198365        -2.148755
 C         0.452888         1.202657        -1.492296
 C         0.268229         1.004914         0.028414
 O        -0.907170         0.266135         0.213449
 C         1.486678         0.163327         0.564738
 O         2.597083         0.390123         0.145477
 H        -0.602969        -2.279263        -1.175888
 H        -1.720494        -2.079090         0.214569
 H        -2.509649        -2.232713        -1.273385
 H        -2.718139         0.136229        -2.708003
 H        -2.330027         1.478935        -1.563976
 H        -0.161491        -0.353453        -2.973757
 H         1.501180         0.940638        -1.722068
 H         0.290780         2.216001        -1.839833
 H         0.155455         2.107248         0.558398
 H         1.289183        -0.446033         1.477057
