19
Iteration:   625charge 0 multiplicity 1
 C        -1.526072        -1.956459        -0.806580
 C        -1.226385        -0.425769        -0.867707
 C        -2.122725         0.415791        -1.778724
 C        -0.599643         0.290671        -2.023664
 C         0.376744         1.345791        -1.578026
 C         0.406901         1.117453        -0.021291
 O        -0.911755         0.361224         0.205806
 C         1.443433         0.240072         0.459407
 O         2.649490         0.115659         0.123670
 H        -2.407870        -2.125103        -0.098435
 H        -1.819353        -2.057703        -1.949607
 H        -0.678457        -2.727768        -0.685896
 H        -2.879572         0.075389        -2.573714
 H        -2.598553         1.263431        -1.227132
 H        -0.258427        -0.082978        -2.975685
 H         1.326439         1.301510        -2.030838
 H         0.015835         2.239828        -2.011632
 H         0.404181         2.004385         0.603066
 H         1.072300        -0.368869         1.269931
