19
Iteration:  3962charge 0 multiplicity 1
 C        -2.188093        -1.705446        -0.908124
 C        -1.368233        -0.431949        -0.984958
 C        -1.901110         0.653487        -1.953935
 C        -0.608799        -0.036127        -2.273794
 C         0.594579         0.721880        -1.843743
 C         0.349286         0.832120        -0.183848
 O        -0.630544        -0.120858         0.196799
 C         1.641886         0.446525         0.608028
 O         2.576066         1.089204         0.983445
 H        -3.238661        -1.522706        -1.200553
 H        -1.797629        -2.437233        -1.515344
 H        -2.090409        -2.114167         0.135720
 H        -2.701477         0.360416        -2.666239
 H        -1.704997         1.727296        -1.655783
 H        -0.565831        -0.796613        -3.114334
 H         1.400111         0.097138        -2.022576
 H         0.572191         1.667623        -2.318539
 H        -0.061586         1.910242        -0.219477
 H         1.839819        -0.652193         0.400564
