19
Iteration:  3989charge 0 multiplicity 1
 C        -2.135755        -1.799549        -1.005087
 C        -1.436864        -0.441718        -1.042328
 C        -1.987265         0.655324        -1.883651
 C        -0.602225         0.022979        -2.188602
 C         0.678080         0.643553        -1.648873
 C         0.436891         0.808884        -0.125696
 O        -0.707338         0.085029         0.125360
 C         1.678481         0.325883         0.530474
 O         2.528445         1.147848         0.857629
 H        -3.036505        -1.856462        -1.629822
 H        -1.358333        -2.649539        -1.176642
 H        -2.401040        -1.944904         0.028973
 H        -2.717294         0.245813        -2.548261
 H        -2.034443         1.609217        -1.429019
 H        -0.539234        -0.532955        -3.095354
 H         1.335027        -0.263267        -1.760297
 H         0.921616         1.568338        -2.252684
 H         0.324295         1.824114        -0.010245
 H         1.799805        -0.800243         0.723349
