19
Iteration:  2546charge 0 multiplicity 1
 C        -1.863750        -1.917610        -0.824767
 C        -1.249697        -0.444565        -0.991675
 C        -2.131725         0.462925        -1.881314
 C        -0.579039         0.207511        -2.133702
 C         0.336070         1.339821        -1.546428
 C         0.331622         0.980823        -0.013732
 O        -0.780550         0.163908         0.267189
 C         1.600174         0.223009         0.595016
 O         2.790246         0.444394         0.170627
 H        -2.302516        -2.040235         0.194307
 H        -2.807935        -2.021775        -1.607456
 H        -0.947400        -2.711637        -0.976876
 H        -2.761375        -0.056388        -2.633832
 H        -2.417413         1.525740        -1.655726
 H        -0.463919        -0.366950        -3.077740
 H         1.373183         1.333605        -1.952770
 H         0.140416         2.399998        -1.654312
 H         0.300429         1.902930         0.622952
 H         1.423399        -0.436301         1.486873
