19
Iteration:  1603
 C        -1.408775        -1.829976        -0.644334
 C        -1.339977        -0.350390        -0.963801
 C        -2.165299         0.487492        -1.956735
 C        -0.582186         0.281460        -2.073265
 C         0.375845         1.304527        -1.447478
 C         0.288620         0.878249         0.039608
 O        -1.006720         0.332235         0.217814
 C         1.603966         0.035844         0.468887
 O         2.659004         0.338354         0.027800
 H        -2.304211        -2.348505        -0.268528
 H        -1.472086        -2.243859        -1.675226
 H        -0.453262        -2.212296        -0.099875
 H        -2.678155         0.087891        -2.818874
 H        -2.427392         1.475096        -1.641808
 H        -0.317916        -0.328980        -2.913268
 H         1.434574         1.053229        -1.845955
 H        -0.017478         2.379625        -1.564717
 H         0.291537         1.811642         0.691826
 H         1.239673        -0.600835         1.317341
