19
Iteration:  4805charge 0 multiplicity 1
 C        -1.861985        -1.864846        -0.864841
 C        -1.333952        -0.399464        -1.093281
 C        -1.935364         0.468991        -2.140361
 C        -0.454486        -0.014312        -2.150210
 C         0.596291         0.889119        -1.607006
 C         0.270806         1.026166        -0.083950
 O        -0.857703         0.213234         0.139158
 C         1.424129         0.504308         0.728777
 O         2.600862         0.665828         0.667811
 H        -2.827194        -2.208571        -1.223891
 H        -1.118292        -2.544862        -1.455580
 H        -1.859335        -2.021332         0.255353
 H        -2.536804        -0.056553        -2.920756
 H        -2.064146         1.568264        -1.944316
 H        -0.154064        -0.744279        -2.986140
 H         1.540925         0.393189        -1.567293
 H         0.681262         1.935535        -2.064430
 H        -0.040768         2.005664         0.285039
 H         1.026679        -0.212831         1.444202
