19
Iteration:   596
 C        -1.510860        -1.855859        -0.839766
 C        -1.272383        -0.356623        -0.882493
 C        -2.157165         0.441939        -1.800848
 C        -0.598772         0.281314        -2.177308
 C         0.277059         1.301354        -1.597479
 C         0.342219         1.058629        -0.021006
 O        -0.816154         0.301959         0.317378
 C         1.536746         0.255214         0.514723
 O         2.633145         0.099275         0.147143
 H        -2.410235        -2.064254        -0.312847
 H        -1.667237        -2.202726        -1.788675
 H        -0.634672        -2.389938        -0.486558
 H        -2.772158        -0.262316        -2.365175
 H        -2.567273         1.421733        -1.597139
 H        -0.305718        -0.205373        -3.110436
 H         1.378161         1.235704        -1.973166
 H        -0.025418         2.283075        -2.037014
 H         0.357547         2.014148         0.574691
 H         1.179000        -0.279859         1.508105
