19
Iteration:  1701
 C        -1.365523        -1.861273        -0.751739
 C        -1.332439        -0.365816        -0.911354
 C        -2.135624         0.459487        -1.938493
 C        -0.561533         0.340533        -2.138755
 C         0.448293         1.244476        -1.467194
 C         0.273435         1.025421         0.086652
 O        -1.018424         0.244636         0.280289
 C         1.589652         0.287198         0.599521
 O         2.518665         0.153010        -0.116019
 H        -1.977649        -2.128709         0.021201
 H        -1.753982        -2.456762        -1.574959
 H        -0.298203        -2.220614        -0.513374
 H        -2.736722         0.039566        -2.746389
 H        -2.486610         1.424976        -1.598949
 H        -0.054580        -0.340575        -2.785249
 H         1.550011         0.987680        -1.714687
 H         0.159904         2.331741        -1.527318
 H         0.281119         2.078906         0.675173
 H         1.308727        -0.157434         1.572278
