19
Iteration:  1773charge 0 multiplicity 1
 C        -1.414823        -1.893865        -0.741316
 C        -1.137184        -0.460991        -0.894427
 C        -2.135048         0.397756        -1.871665
 C        -0.610638         0.329176        -2.117247
 C         0.282360         1.501515        -1.545637
 C         0.316885         1.112256        -0.071011
 O        -0.840659         0.253623         0.257102
 C         1.467223         0.268781         0.459019
 O         2.583176         0.023829         0.140934
 H        -2.567699        -1.920540        -0.264441
 H        -1.509584        -2.365745        -1.771244
 H        -0.678823        -2.410171        -0.115407
 H        -2.934575        -0.009513        -2.508935
 H        -2.454122         1.340275        -1.463267
 H        -0.154027        -0.317149        -2.881592
 H         1.214835         1.395865        -2.008017
 H        -0.126443         2.501645        -1.559810
 H         0.228846         2.079017         0.604050
 H         0.885297        -0.311795         1.174919
