19
Iteration:  2067charge 0 multiplicity 1
 C        -1.550900        -1.882089        -0.821587
 C        -1.245556        -0.443577        -0.869965
 C        -2.061989         0.486688        -1.811684
 C        -0.573528         0.266603        -2.103022
 C         0.390140         1.277764        -1.585004
 C         0.291829         1.063477        -0.019472
 O        -0.835550         0.200056         0.266547
 C         1.415418         0.270893         0.471604
 O         2.622008         0.264003         0.119121
 H        -2.537365        -2.090082        -0.281958
 H        -1.703931        -2.288097        -1.842385
 H        -0.837878        -2.427801        -0.275862
 H        -2.806423         0.128374        -2.527629
 H        -2.302242         1.478111        -1.464864
 H        -0.423037        -0.429360        -3.012688
 H         1.425034         1.423402        -1.818595
 H         0.048350         2.279307        -1.730975
 H         0.340750         2.026153         0.600751
 H         1.234648        -0.519817         1.242553
