19
Iteration:  3413charge 0 multiplicity 1
 C        -1.771247        -1.886488        -0.858162
 C        -1.415929        -0.447331        -0.990833
 C        -1.951286         0.594920        -1.980459
 C        -0.591798         0.189679        -2.124175
 C         0.501122         0.998108        -1.480499
 C         0.287410         0.948007         0.059247
 O        -0.913950         0.136679         0.168391
 C         1.615663         0.261524         0.633675
 O         2.663750         0.673537         0.241746
 H        -2.894957        -2.133876        -0.708519
 H        -1.497912        -2.520411        -1.770055
 H        -1.293565        -2.356168        -0.000468
 H        -2.629734         0.182417        -2.697520
 H        -2.183314         1.602724        -1.629101
 H        -0.223863        -0.227124        -3.031100
 H         1.464230         0.647271        -1.751357
 H         0.474296         1.953981        -1.923658
 H         0.096425         1.989820         0.596635
 H         1.606632        -0.509026         1.439825
