19
Iteration:  3182charge 0 multiplicity 1
 C        -1.585257        -1.913256        -0.772321
 C        -1.273805        -0.392407        -0.908420
 C        -2.009215         0.415378        -1.962149
 C        -0.461060         0.206178        -2.063640
 C         0.261939         1.403666        -1.504952
 C         0.313597         1.067832        -0.018391
 O        -0.853212         0.308762         0.372398
 C         1.466118         0.160493         0.466463
 O         2.558936         0.240725         0.073917
 H        -1.317704        -2.368377         0.208342
 H        -2.605411        -2.221348        -1.340704
 H        -0.759566        -2.204929        -1.489336
 H        -2.681809        -0.057253        -2.696406
 H        -2.145497         1.507663        -1.755279
 H         0.054558        -0.340396        -2.856947
 H         1.311500         1.324402        -1.860764
 H        -0.078281         2.412993        -1.853839
 H         0.340681         1.866022         0.677521
 H         1.042042        -0.599789         1.182390
