19
Iteration:  4967
 C        -1.606515        -1.771724        -0.721995
 C        -1.289938        -0.352189        -1.022786
 C        -1.836619         0.327692        -2.320132
 C        -0.390125         0.047326        -2.279600
 C         0.596969         0.966445        -1.576778
 C         0.225840         1.013648        -0.046775
 O        -0.969486         0.314789         0.149345
 C         1.263626         0.524400         0.877531
 O         2.476259         0.421176         0.539097
 H        -0.564955        -2.193945        -0.454762
 H        -2.338551        -1.772045         0.039762
 H        -1.927873        -2.408663        -1.623349
 H        -2.579904        -0.273309        -2.916971
 H        -2.158202         1.394648        -2.400073
 H         0.000593        -0.788351        -2.817089
 H         1.565108         0.526497        -1.637523
 H         0.532319         2.053875        -1.963186
 H         0.044225         2.040430         0.249551
 H         0.755763         0.071110         1.793307
