19
Iteration:  2591charge 0 multiplicity 1
 C        -1.668998        -1.921680        -0.776496
 C        -1.404658        -0.374645        -0.938472
 C        -2.087564         0.603851        -1.891948
 C        -0.596107         0.203420        -2.097309
 C         0.361639         1.254655        -1.543341
 C         0.312545         0.981542        -0.010072
 O        -0.820183         0.114377         0.231416
 C         1.602616         0.165102         0.457730
 O         2.690800         0.469275         0.218632
 H        -2.122516        -1.964817         0.204922
 H        -2.461554        -2.326250        -1.573267
 H        -0.574673        -2.435007        -0.646763
 H        -2.781933         0.071917        -2.558389
 H        -2.231202         1.627336        -1.565809
 H        -0.212805        -0.242752        -3.026075
 H         1.344566         1.012669        -1.969981
 H         0.127855         2.261794        -1.958564
 H         0.372275         1.923817         0.596970
 H         1.381044        -0.727376         1.087613
