19
Iteration:  3399
 C        -1.785894        -1.887098        -0.890086
 C        -1.310017        -0.435581        -1.021680
 C        -2.023425         0.617023        -1.956390
 C        -0.481801         0.081354        -2.076989
 C         0.531427         1.038057        -1.534628
 C         0.279439         0.931698         0.018814
 O        -0.856198         0.162712         0.305261
 C         1.486000         0.292838         0.604223
 O         2.623080         0.656769         0.209296
 H        -2.841227        -1.866747        -1.102424
 H        -1.157210        -2.446915        -1.719407
 H        -1.531024        -2.278638         0.091779
 H        -2.660960         0.382645        -2.854613
 H        -2.373340         1.431347        -1.277709
 H        -0.434236        -0.498344        -3.041981
 H         1.596976         0.693836        -1.725690
 H         0.378164         2.096132        -1.846332
 H         0.177101         1.859478         0.545716
 H         1.233152        -0.650413         1.174507
