19
Iteration:  1513
 C        -1.618315        -1.829421        -0.706239
 C        -1.325533        -0.420758        -1.032892
 C        -2.128576         0.462227        -1.961782
 C        -0.625686         0.289151        -2.110016
 C         0.216413         1.355839        -1.510494
 C         0.349070         0.922350        -0.044360
 O        -0.858701         0.210447         0.204732
 C         1.644848         0.263007         0.573359
 O         2.769829         0.251451         0.208084
 H        -2.114507        -1.981360         0.165393
 H        -2.219437        -2.325324        -1.534722
 H        -0.615360        -2.322945        -0.672112
 H        -2.648680        -0.283418        -2.595502
 H        -2.668599         1.390014        -1.693843
 H        -0.166921        -0.245430        -3.004970
 H         1.188531         1.357851        -2.024441
 H        -0.248064         2.382332        -1.512847
 H         0.349374         1.861835         0.481709
 H         1.428086        -0.250435         1.483809
