19
Iteration:  3879
 C        -2.124498        -1.755215        -0.949561
 C        -1.460091        -0.384884        -0.994196
 C        -1.914742         0.819717        -1.832350
 C        -0.710463        -0.045264        -2.256634
 C         0.676308         0.393491        -1.825718
 C         0.472062         0.832915        -0.256498
 O        -0.590735        -0.122171         0.049375
 C         1.737261         0.478941         0.487513
 O         2.385008         1.260654         1.187062
 H        -2.379423        -2.117746         0.017572
 H        -3.076032        -1.773305        -1.665011
 H        -1.432617        -2.614270        -1.377302
 H        -2.833342         0.792715        -2.368164
 H        -1.798907         1.748189        -1.346984
 H        -0.908155        -0.741550        -3.066680
 H         1.464915        -0.506725        -1.856771
 H         0.980239         1.124259        -2.673262
 H         0.206744         1.936695        -0.159839
 H         1.966211        -0.631496         0.465455
