19
Iteration:  1753charge 0 multiplicity 1
 C        -1.422777        -1.913886        -0.835310
 C        -1.233846        -0.424514        -0.873791
 C        -2.056519         0.445343        -1.772910
 C        -0.546618         0.263931        -2.128621
 C         0.283397         1.399352        -1.608686
 C         0.270020         1.145176        -0.016383
 O        -0.837809         0.339584         0.271432
 C         1.438597         0.185646         0.536032
 O         2.561279         0.068397         0.064369
 H        -2.421380        -2.160041        -0.387391
 H        -1.172601        -2.475171        -1.769590
 H        -0.678927        -2.330044        -0.095675
 H        -2.733551        -0.087860        -2.436899
 H        -2.523206         1.275152        -1.283132
 H        -0.297144        -0.009723        -3.131644
 H         1.268218         1.400401        -1.975011
 H        -0.123243         2.369290        -1.765833
 H         0.268118         1.976493         0.559609
 H         1.054975        -0.218478         1.495259
