19
Iteration:  3757
 C        -2.305451        -1.650215        -1.004389
 C        -1.395114        -0.518880        -1.003570
 C        -1.835768         0.727702        -1.770106
 C        -0.603884         0.019526        -2.198824
 C         0.721676         0.647498        -1.849165
 C         0.401847         0.687575        -0.212286
 O        -0.576520        -0.283660         0.171527
 C         1.635623         0.464570         0.590409
 O         2.429504         1.303350         0.897124
 H        -2.828420        -1.631047        -0.033219
 H        -2.809692        -1.683949        -1.908794
 H        -1.770012        -2.683730        -1.093109
 H        -2.727227         0.469998        -2.371028
 H        -1.590727         1.757892        -1.512170
 H        -0.573772        -0.412900        -3.200836
 H         1.570517        -0.016520        -2.027952
 H         0.842720         1.660590        -2.247799
 H        -0.012058         1.747062        -0.004177
 H         1.834487        -0.558656         0.892323
