19
Iteration:  3473charge 0 multiplicity 1
 C        -1.819114        -1.936890        -0.894389
 C        -1.337267        -0.436994        -1.027269
 C        -2.071239         0.541596        -1.887045
 C        -0.607771         0.142666        -2.187893
 C         0.531514         1.136575        -1.686429
 C         0.297811         1.075255        -0.104095
 O        -0.718869         0.035067         0.238780
 C         1.489627         0.408721         0.597753
 O         2.707362         0.517463         0.538026
 H        -1.912203        -2.068261         0.118621
 H        -2.748732        -1.947019        -1.358751
 H        -1.114762        -2.625277        -1.366977
 H        -3.057331         0.262183        -2.336159
 H        -2.130065         1.524934        -1.359412
 H        -0.455712        -0.494600        -3.126751
 H         1.569792         0.780314        -1.980963
 H         0.254677         2.101441        -2.189160
 H         0.024079         2.165718         0.295482
 H         0.968153        -0.226728         1.348802
