19
Iteration:  1854charge 0 multiplicity 1
 C        -1.445141        -1.895335        -0.764315
 C        -1.237233        -0.432414        -0.908754
 C        -2.002666         0.499119        -1.939944
 C        -0.535354         0.197256        -2.067552
 C         0.414248         1.292066        -1.490745
 C         0.246034         1.071797         0.088515
 O        -0.913358         0.337779         0.336335
 C         1.434578         0.144041         0.437100
 O         2.483012         0.280811        -0.030750
 H        -2.032387        -2.201159         0.088256
 H        -2.032931        -2.083178        -1.712538
 H        -0.447287        -2.619504        -0.738752
 H        -2.761595        -0.000156        -2.613136
 H        -2.381152         1.433527        -1.451238
 H        -0.053281        -0.449697        -2.888663
 H         1.520409         1.265558        -1.765274
 H         0.128624         2.311008        -1.785259
 H         0.411132         1.992957         0.690754
 H         1.036695        -0.577029         1.221993
