19
Iteration:  3728charge 0 multiplicity 1
 C        -2.134059        -1.770242        -1.005200
 C        -1.439334        -0.500150        -1.147153
 C        -1.999057         0.838782        -1.834727
 C        -0.662278         0.061431        -2.192648
 C         0.688334         0.489695        -1.603463
 C         0.363222         0.739286        -0.043929
 O        -0.673697        -0.193146         0.072162
 C         1.734247         0.402948         0.625658
 O         2.534650         1.333225         0.786748
 H        -3.164804        -1.673755        -0.655844
 H        -2.214118        -2.244409        -2.116590
 H        -1.565831        -2.434261        -0.418145
 H        -2.854858         0.875094        -2.459970
 H        -1.797544         1.797641        -1.368278
 H        -0.662144        -0.297787        -3.261311
 H         1.366213        -0.375105        -1.517774
 H         1.183225         1.328726        -2.182855
 H         0.199644         1.827154         0.200557
 H         2.128091        -0.682970         0.665793
