19
Iteration:   953
 C        -1.615133        -1.883925        -0.799451
 C        -1.272740        -0.440921        -0.969739
 C        -2.068912         0.516308        -1.856946
 C        -0.570979         0.234397        -2.109992
 C         0.442142         1.233422        -1.529541
 C         0.314046         1.029925         0.031146
 O        -0.819468         0.209222         0.288464
 C         1.495721         0.304483         0.593210
 O         2.564740         0.306195         0.015188
 H        -2.475638        -2.088217        -0.079365
 H        -1.927830        -2.103114        -1.818888
 H        -0.829951        -2.555842        -0.548712
 H        -2.636108        -0.056667        -2.551413
 H        -2.444923         1.440616        -1.508932
 H        -0.357012        -0.387196        -2.991947
 H         1.447247         0.961475        -1.753624
 H         0.340514         2.367217        -1.680421
 H         0.076703         2.072199         0.514979
 H         1.198810        -0.336498         1.442938
