19
Iteration:  1996
 C        -1.489057        -1.870006        -0.751799
 C        -1.338755        -0.457202        -0.926094
 C        -2.082011         0.501963        -1.916550
 C        -0.607261         0.285627        -2.185328
 C         0.399199         1.282313        -1.518151
 C         0.299367         0.992371         0.031602
 O        -0.908468         0.275202         0.236801
 C         1.503089         0.155405         0.578393
 O         2.665701         0.307455         0.086825
 H        -1.890274        -2.063379         0.215775
 H        -2.281906        -2.154622        -1.443885
 H        -0.472031        -2.400958        -0.757325
 H        -2.807843        -0.026633        -2.587161
 H        -2.456244         1.515713        -1.669432
 H        -0.430532        -0.409540        -2.948200
 H         1.420325         1.342078        -1.937053
 H         0.118718         2.272589        -1.734550
 H         0.131299         1.988199         0.697709
 H         1.342004        -0.586867         1.427119
