19
Iteration:  1030
 C        -1.603472        -1.820994        -0.825307
 C        -1.264006        -0.432457        -0.912664
 C        -2.095124         0.450651        -1.801721
 C        -0.638085         0.212961        -2.120427
 C         0.416993         1.250064        -1.604365
 C         0.332542         1.048685        -0.010766
 O        -0.807871         0.248603         0.288248
 C         1.483974         0.151835         0.468697
 O         2.631913         0.368376         0.176113
 H        -2.351074        -2.011307         0.063976
 H        -1.983079        -2.071664        -1.811279
 H        -0.741920        -2.515224        -0.673419
 H        -2.711795        -0.111581        -2.473739
 H        -2.402586         1.483626        -1.715243
 H        -0.372017        -0.215719        -3.065955
 H         1.391488         1.027831        -1.952078
 H         0.102108         2.346497        -1.782608
 H         0.162524         1.907330         0.561493
 H         1.136040        -0.553784         1.291496
