19
Iteration:  2767
 C        -1.612925        -1.862250        -0.875749
 C        -1.312574        -0.324631        -0.876918
 C        -1.968339         0.557565        -1.914504
 C        -0.459478         0.073837        -2.007323
 C         0.413224         1.176821        -1.500344
 C         0.310239         0.957577         0.064955
 O        -0.958517         0.258236         0.363341
 C         1.490457         0.232875         0.439719
 O         2.569225         0.412695        -0.021389
 H        -2.118790        -2.203447         0.072883
 H        -2.056321        -2.140750        -1.811450
 H        -0.566325        -2.443023        -0.847837
 H        -2.692907         0.080400        -2.572724
 H        -2.272082         1.566742        -1.713403
 H        -0.236188        -0.592493        -2.881682
 H         1.467316         1.047157        -1.715074
 H        -0.047944         2.074685        -1.697909
 H         0.084115         2.014944         0.571886
 H         1.340840        -0.391305         1.355783
