19
Iteration:   836charge 0 multiplicity 1
 C        -1.448822        -1.823918        -0.754459
 C        -1.247867        -0.380226        -0.912300
 C        -2.002094         0.497317        -1.836030
 C        -0.625976         0.214142        -2.123633
 C         0.290974         1.352933        -1.566219
 C         0.276211         1.069648        -0.058872
 O        -0.840119         0.254670         0.258297
 C         1.398042         0.205992         0.495305
 O         2.618912         0.122817         0.154607
 H        -1.952901        -2.174028         0.161711
 H        -1.929297        -2.257164        -1.630909
 H        -0.372547        -2.352384        -0.725730
 H        -2.774163         0.105807        -2.497991
 H        -2.153385         1.515086        -1.550585
 H        -0.246714        -0.397565        -2.944241
 H         1.227795         1.554424        -2.182795
 H        -0.298649         2.310379        -1.775523
 H         0.238950         1.962236         0.472860
 H         1.117744        -0.457872         1.332715
