19
Iteration:   841charge 0 multiplicity 1
 C        -1.458354        -1.903052        -0.727797
 C        -1.224789        -0.391604        -0.920905
 C        -2.037873         0.506933        -1.880380
 C        -0.610990         0.253715        -2.150666
 C         0.281841         1.386843        -1.594023
 C         0.262236         1.040058        -0.073568
 O        -0.826753         0.281233         0.257338
 C         1.475367         0.187107         0.504245
 O         2.600208         0.121329         0.177561
 H        -2.026041        -2.115016         0.192076
 H        -1.993242        -2.230377        -1.677875
 H        -0.540882        -2.434615        -0.694013
 H        -2.902355         0.090419        -2.432590
 H        -2.232079         1.558471        -1.500127
 H        -0.284154        -0.362964        -2.981507
 H         1.225601         1.506846        -2.083352
 H        -0.352072         2.253723        -1.469143
 H         0.280646         2.075616         0.482901
 H         1.206444        -0.265253         1.509357
