19
Iteration:  3972
 C        -2.167120        -1.755247        -0.944670
 C        -1.427886        -0.426673        -0.990915
 C        -1.980285         0.654295        -1.947858
 C        -0.601054        -0.046790        -2.200262
 C         0.673892         0.683338        -1.739924
 C         0.424927         0.890404        -0.252957
 O        -0.674472        -0.092286         0.175776
 C         1.665151         0.410172         0.512280
 O         2.576654         1.116360         0.964925
 H        -3.222062        -1.581691        -1.343222
 H        -1.670088        -2.466272        -1.527650
 H        -2.385495        -2.183977         0.045167
 H        -2.897913         0.402931        -2.557314
 H        -1.960073         1.784390        -1.711120
 H        -0.507899        -0.827068        -3.016637
 H         1.621540         0.192848        -1.879377
 H         0.856000         1.673257        -2.132379
 H         0.084835         1.909000         0.220496
 H         1.609071        -0.702277         0.638336
