19
Iteration:  1719charge 0 multiplicity 1
 C        -1.307662        -1.862410        -0.797065
 C        -1.317013        -0.378912        -0.940127
 C        -2.096136         0.493121        -1.959108
 C        -0.599561         0.307456        -2.056177
 C         0.375097         1.235770        -1.437604
 C         0.235764         1.022859         0.074436
 O        -0.960306         0.321459         0.318913
 C         1.558786         0.248634         0.517761
 O         2.532219         0.134665        -0.066730
 H        -2.239056        -2.223543        -0.159057
 H        -1.494857        -2.375289        -1.793582
 H        -0.409294        -1.981363        -0.207166
 H        -2.667060        -0.100892        -2.687991
 H        -2.621380         1.368434        -1.620901
 H        -0.361092        -0.211120        -3.013689
 H         1.274350         0.789149        -1.696819
 H         0.377710         2.229568        -1.791888
 H         0.133867         1.863950         0.639096
 H         1.659338         0.028410         1.656089
