19
Iteration:  4075charge 0 multiplicity 1
 C        -2.156605        -1.739522        -0.981566
 C        -1.350248        -0.520199        -1.088149
 C        -1.962201         0.627654        -1.784379
 C        -0.611550         0.036148        -2.250432
 C         0.645844         0.699371        -1.761526
 C         0.426081         0.836782        -0.200502
 O        -0.673628        -0.111157         0.118609
 C         1.521790         0.656052         0.843028
 O         2.689583         0.911070         0.675010
 H        -1.837691        -2.335093        -1.795083
 H        -1.980635        -2.528453        -0.140394
 H        -3.268923        -1.423817        -0.982310
 H        -2.824175         0.469427        -2.390619
 H        -1.947989         1.525122        -1.205286
 H        -0.695324        -0.365437        -3.255599
 H         1.600764         0.172302        -1.929896
 H         0.632438         1.788980        -2.043092
 H        -0.133909         1.910074         0.118056
 H         1.065311         0.320433         1.809115
