19
Iteration:   721charge 0 multiplicity 1
 C        -1.571451        -1.850633        -0.789432
 C        -1.219513        -0.406383        -0.929342
 C        -2.010991         0.321723        -1.830694
 C        -0.455419         0.223843        -2.051226
 C         0.272028         1.392747        -1.441300
 C         0.382116         1.146103         0.013936
 O        -0.889970         0.346583         0.281045
 C         1.402656         0.165255         0.400441
 O         2.614032         0.146736         0.016894
 H        -2.509333        -1.896094        -0.237338
 H        -1.737039        -2.072719        -1.891838
 H        -0.872287        -2.495167        -0.404184
 H        -2.907153        -0.242696        -2.259519
 H        -2.408748         1.282308        -1.441271
 H         0.085778        -0.276366        -2.826722
 H         1.227438         1.446810        -1.996553
 H        -0.312081         2.516174        -1.567013
 H         0.285759         2.081549         0.649159
 H         0.979102        -0.666772         0.927369
