19
Iteration:  2536charge 0 multiplicity 1
 C        -1.784573        -1.891000        -0.798417
 C        -1.371143        -0.419884        -0.947046
 C        -2.119183         0.479165        -1.934321
 C        -0.628362         0.249618        -2.133399
 C         0.449687         1.305489        -1.515423
 C         0.360140         0.938614         0.023654
 O        -0.822693         0.112727         0.233582
 C         1.639045         0.319781         0.528779
 O         2.746327         0.426192         0.172757
 H        -2.246356        -1.975570         0.170283
 H        -2.589035        -2.159276        -1.642488
 H        -0.987117        -2.765426        -0.875173
 H        -2.891821         0.087525        -2.631397
 H        -2.351594         1.439160        -1.422307
 H        -0.254582        -0.426085        -2.946358
 H         1.464157         1.175073        -1.938829
 H        -0.050726         2.272723        -1.615628
 H         0.185652         1.842072         0.572045
 H         1.409440        -0.407409         1.331500
