19
Iteration:  2706
 C        -1.701879        -1.885428        -0.706163
 C        -1.258296        -0.432718        -1.002464
 C        -2.098632         0.451666        -1.893503
 C        -0.584936         0.321481        -2.144872
 C         0.266769         1.361952        -1.611110
 C         0.363964         0.984226        -0.042598
 O        -0.833319         0.157821         0.180912
 C         1.597358         0.214549         0.540015
 O         2.700278         0.330080         0.241888
 H        -2.282421        -1.967663         0.278926
 H        -2.209831        -2.467725        -1.463179
 H        -0.795332        -2.412912        -0.442861
 H        -2.886107         0.010460        -2.579919
 H        -2.256699         1.372750        -1.290755
 H        -0.409838        -0.348272        -2.997872
 H         1.340096         1.268741        -2.021777
 H         0.039591         2.565385        -1.634497
 H         0.386419         1.868398         0.496111
 H         1.200187        -0.401034         1.403328
