19
Iteration:  3331
 C        -1.706946        -1.840005        -0.764431
 C        -1.350340        -0.445576        -1.077584
 C        -2.091220         0.476418        -1.916662
 C        -0.686060         0.275366        -2.241217
 C         0.393612         1.256853        -1.625611
 C         0.314946         0.884056        -0.057129
 O        -0.807607         0.120531         0.175587
 C         1.591561         0.311864         0.709359
 O         2.755239         0.417734         0.392750
 H        -1.611163        -2.269307        -1.720400
 H        -0.883395        -2.251647        -0.190011
 H        -2.754961        -1.970234        -0.311120
 H        -2.664836        -0.117524        -2.623161
 H        -2.553801         1.420435        -1.571338
 H        -0.446528        -0.218187        -3.177376
 H         1.493790         0.989697        -1.817465
 H         0.051568         2.320281        -1.892306
 H         0.315703         1.985872         0.318472
 H         1.314700        -0.047827         1.763573
