19
Iteration:  1838
 C        -1.401309        -1.920410        -0.801974
 C        -1.303024        -0.337198        -0.894523
 C        -2.021541         0.476272        -1.912713
 C        -0.542203         0.231333        -2.019251
 C         0.401757         1.254569        -1.435996
 C         0.295670         1.034191         0.044754
 O        -1.022492         0.349676         0.268517
 C         1.461045         0.190848         0.514312
 O         2.544768         0.248541        -0.077194
 H        -1.870121        -2.227446         0.197637
 H        -2.045398        -2.454383        -1.491493
 H        -0.447259        -2.266366        -0.807556
 H        -2.513360        -0.050184        -2.719944
 H        -2.208286         1.489304        -1.646422
 H        -0.109577        -0.334699        -2.801960
 H         1.393384         0.989522        -1.714093
 H         0.237983         2.322345        -1.650366
 H         0.069048         1.997042         0.646544
 H         1.444042        -0.701859         1.175652
