19
Iteration:  3854charge 0 multiplicity 1
 C        -2.159800        -1.762764        -1.036948
 C        -1.377903        -0.415022        -0.961607
 C        -1.855971         0.824205        -1.772660
 C        -0.683216         0.025949        -2.234313
 C         0.697453         0.359907        -1.848428
 C         0.477654         0.693745        -0.351643
 O        -0.583561        -0.071335         0.206376
 C         1.658470         0.505584         0.454114
 O         2.297438         1.287373         1.137954
 H        -2.059075        -2.221608        -0.010192
 H        -3.168505        -1.732218        -1.365864
 H        -1.609647        -2.576958        -1.722057
 H        -2.851353         0.874312        -2.271208
 H        -1.519208         1.777966        -1.265311
 H        -0.923769        -0.609719        -3.144154
 H         1.347089        -0.610459        -2.138366
 H         1.153974         1.269923        -2.341160
 H         0.242673         1.692496        -0.498844
 H         1.890175        -0.589910         0.491609
