19
Iteration:  2756
 C        -1.596377        -1.828956        -0.848708
 C        -1.369660        -0.385771        -0.854400
 C        -1.961786         0.527770        -1.952758
 C        -0.548994         0.116463        -2.019091
 C         0.490447         1.216046        -1.482564
 C         0.239340         0.954409         0.015464
 O        -0.949515         0.240428         0.340771
 C         1.500081         0.195193         0.563393
 O         2.595252         0.450021        -0.067628
 H        -2.156643        -2.252561         0.020546
 H        -2.276360        -2.101041        -1.653869
 H        -0.537591        -2.337220        -1.017737
 H        -2.632559        -0.056507        -2.565858
 H        -2.119274         1.573899        -1.814383
 H        -0.322140        -0.684571        -2.774459
 H         1.554329         1.257216        -1.702258
 H         0.247358         2.160295        -1.854039
 H         0.418241         1.911120         0.737878
 H         1.451977        -0.569267         1.386562
