19
Iteration:  2064charge 0 multiplicity 1
 C        -1.562351        -1.876864        -0.830597
 C        -1.249018        -0.417164        -0.881542
 C        -2.050729         0.480673        -1.824877
 C        -0.594010         0.240768        -2.110174
 C         0.378735         1.293210        -1.561896
 C         0.298559         1.062548        -0.030325
 O        -0.824296         0.206025         0.255539
 C         1.462370         0.267101         0.476551
 O         2.602455         0.257286         0.137050
 H        -2.450524        -1.999171        -0.284575
 H        -1.747983        -2.340834        -1.789545
 H        -0.783356        -2.576399        -0.269927
 H        -2.834136         0.097625        -2.466966
 H        -2.343232         1.438192        -1.395068
 H        -0.385494        -0.429835        -2.961428
 H         1.398840         1.444362        -1.982630
 H        -0.013983         2.263312        -1.667795
 H         0.287839         2.065131         0.664773
 H         1.225458        -0.495582         1.214401
