19
Iteration:  4324
 C        -2.098707        -1.778860        -0.726444
 C        -1.371513        -0.464641        -0.994601
 C        -2.059425         0.490771        -1.938481
 C        -0.648181         0.038021        -2.264680
 C         0.546643         0.933497        -1.846687
 C         0.439871         0.912141        -0.342527
 O        -0.624894         0.099634         0.095285
 C         1.764629         0.318514         0.386110
 O         2.510548         0.859665         1.173905
 H        -1.935104        -2.396381        -1.523081
 H        -1.709188        -2.198502         0.179525
 H        -3.211882        -1.558709        -0.731941
 H        -2.902733         0.262109        -2.596759
 H        -2.136835         1.459478        -1.424830
 H        -0.331169        -0.616072        -3.129432
 H         1.500177         0.543556        -2.202964
 H         0.514823         2.016207        -2.227695
 H         0.319906         2.050467        -0.078783
 H         1.852750        -0.808817         0.375081
