19
Iteration:  4668charge 0 multiplicity 1
 C        -2.100466        -1.828668        -0.885799
 C        -1.393357        -0.493118        -1.135189
 C        -1.921196         0.659440        -1.905452
 C        -0.467864         0.095840        -2.237446
 C         0.722712         0.709945        -1.602178
 C         0.288243         0.920720        -0.060436
 O        -0.755174        -0.143789         0.074636
 C         1.491971         0.508522         0.724443
 O         2.598109         1.015029         0.610961
 H        -1.303656        -2.312398        -0.112592
 H        -3.058258        -1.605272        -0.323997
 H        -2.268924        -2.325820        -1.837515
 H        -2.723326         0.393736        -2.579474
 H        -2.045369         1.685203        -1.597329
 H        -0.456345        -0.404596        -3.175689
 H         1.597347        -0.029364        -1.611537
 H         1.099109         1.575978        -2.092941
 H         0.086724         1.939027         0.230300
 H         1.154788        -0.233862         1.552909
