19
Iteration:  3981
 C        -2.163518        -1.790231        -0.971072
 C        -1.449124        -0.405741        -1.031754
 C        -1.975273         0.645614        -1.909792
 C        -0.627568        -0.049135        -2.157787
 C         0.695152         0.686817        -1.643572
 C         0.444316         0.846441        -0.180008
 O        -0.685459        -0.005641         0.130106
 C         1.701089         0.389625         0.466817
 O         2.529954         1.115894         0.915894
 H        -3.159264        -1.782438        -1.656569
 H        -1.582180        -2.612442        -1.489513
 H        -2.312945        -2.004799         0.057311
 H        -2.886731         0.265026        -2.497709
 H        -2.113578         1.757325        -1.568395
 H        -0.451118        -0.672697        -3.080725
 H         1.580905        -0.071389        -1.906371
 H         0.958860         1.605303        -2.232412
 H         0.330745         2.005676         0.122391
 H         1.632645        -0.630284         0.857366
