19
Iteration:   353charge 0 multiplicity 1
 C        -1.540380        -1.891831        -0.572629
 C        -1.303411        -0.467346        -0.997196
 C        -2.088379         0.415398        -1.925200
 C        -0.591079         0.409302        -2.150548
 C         0.390037         1.453124        -1.493718
 C         0.390391         0.966444        -0.033005
 O        -0.864875         0.325586         0.188833
 C         1.466658         0.020029         0.482744
 O         2.602857         0.253928         0.090213
 H        -2.069151        -1.916427         0.290566
 H        -2.090298        -2.408647        -1.353545
 H        -0.615991        -2.333996        -0.387023
 H        -2.559624        -0.290311        -2.722239
 H        -2.783948         1.183896        -1.298096
 H        -0.421330         0.082230        -3.170642
 H         1.491216         1.306336        -1.871004
 H         0.014758         2.486409        -1.537861
 H         0.370683         1.824471         0.690500
 H         1.174897        -0.582041         1.349357
