19
Iteration:  2952charge 0 multiplicity 1
 C        -1.491787        -1.808716        -0.747328
 C        -1.196781        -0.427248        -0.969281
 C        -2.016083         0.380129        -1.963388
 C        -0.521396         0.257488        -2.049113
 C         0.193284         1.477822        -1.507354
 C         0.292815         1.052901         0.010060
 O        -0.860566         0.317474         0.284382
 C         1.500551         0.209677         0.525925
 O         2.574117         0.043421         0.034362
 H        -1.981587        -1.745706         0.161645
 H        -1.996891        -2.300916        -1.510659
 H        -0.624061        -2.440094        -0.541592
 H        -2.607651        -0.281528        -2.589585
 H        -2.513396         1.352565        -1.835756
 H         0.073127        -0.269813        -2.783081
 H         1.237819         1.663934        -1.965652
 H        -0.419855         2.468251        -1.502385
 H         0.193519         1.985627         0.704723
 H         1.099871        -0.433493         1.352435
