19
Iteration:  2137charge 0 multiplicity 1
 C        -1.535768        -1.863669        -0.774302
 C        -1.294965        -0.396863        -0.951184
 C        -2.164764         0.461076        -1.936946
 C        -0.625524         0.278845        -2.109921
 C         0.367603         1.303059        -1.462990
 C         0.333247         0.973021         0.003896
 O        -0.943603         0.255412         0.285176
 C         1.609892         0.253010         0.517385
 O         2.702389         0.258120         0.097721
 H        -2.352750        -2.224586        -0.135025
 H        -1.809421        -2.283239        -1.750025
 H        -0.675808        -2.452831        -0.450999
 H        -2.716803        -0.016511        -2.766799
 H        -2.475277         1.497988        -1.721190
 H        -0.283772        -0.456529        -2.774295
 H         1.306531         1.315878        -2.040129
 H         0.044329         2.384164        -1.739143
 H         0.196710         1.839654         0.629659
 H         1.353763        -0.436353         1.381576
