19
Iteration:  1437charge 0 multiplicity 1
 C        -1.565293        -1.896293        -0.888041
 C        -1.342614        -0.395177        -0.914501
 C        -2.033875         0.567768        -1.779228
 C        -0.611167         0.165622        -2.071468
 C         0.393054         1.160818        -1.585978
 C         0.306963         1.024239        -0.024486
 O        -0.858646         0.213790         0.291201
 C         1.526531         0.260423         0.564194
 O         2.595560         0.385267         0.098349
 H        -2.404590        -2.167383        -0.370205
 H        -1.773028        -2.259232        -1.941776
 H        -0.753313        -2.457680        -0.357346
 H        -2.761036         0.161458        -2.504632
 H        -2.206459         1.616141        -1.585776
 H        -0.375301        -0.336646        -3.027358
 H         1.359562         0.921957        -1.910346
 H         0.296347         2.188176        -1.869788
 H         0.287034         1.945416         0.432137
 H         1.457576        -0.359333         1.489674
