19
Iteration:  2196charge 0 multiplicity 1
 C        -1.549504        -1.915756        -0.702864
 C        -1.295438        -0.420126        -0.980840
 C        -2.049339         0.491113        -1.874852
 C        -0.595473         0.290064        -2.129669
 C         0.351644         1.346315        -1.477611
 C         0.296117         1.026536        -0.013317
 O        -0.917914         0.308701         0.219263
 C         1.533910         0.063058         0.394434
 O         2.657184         0.335838         0.197368
 H        -1.844438        -1.946937         0.330344
 H        -2.220454        -2.415784        -1.431569
 H        -0.455505        -2.284673        -0.842965
 H        -2.654455         0.015650        -2.624290
 H        -2.550473         1.351213        -1.426037
 H        -0.217265        -0.419727        -2.952767
 H         1.356880         1.133873        -1.982032
 H        -0.113407         2.359755        -1.629068
 H         0.364462         1.746800         0.682393
 H         1.205783        -0.935429         0.816100
