19
Iteration:  4364
 C        -1.851389        -1.787780        -0.681015
 C        -1.419919        -0.392752        -1.005818
 C        -1.957786         0.694997        -1.850800
 C        -0.617959         0.062985        -2.292324
 C         0.599493         0.780046        -1.863783
 C         0.391496         0.894909        -0.353870
 O        -0.664505         0.061931         0.120129
 C         1.652665         0.304060         0.337727
 O         2.350862         0.877038         1.104597
 H        -2.121531        -2.397888        -1.665323
 H        -1.086343        -2.273650        -0.077956
 H        -2.772025        -1.900202        -0.066526
 H        -2.833966         0.533252        -2.474500
 H        -1.823642         1.636389        -1.338130
 H        -0.741119        -0.817401        -2.949535
 H         1.517551         0.274165        -2.163996
 H         0.674686         1.766726        -2.294470
 H         0.141293         1.789725         0.026140
 H         1.508687        -0.810354         0.141555
