19
Iteration:  1162
 C        -1.637220        -1.843470        -0.756720
 C        -1.300218        -0.396917        -0.880261
 C        -2.055595         0.505391        -1.847060
 C        -0.575473         0.225480        -2.104184
 C         0.309979         1.241972        -1.560867
 C         0.383237         0.897550        -0.028303
 O        -0.855211         0.269921         0.202841
 C         1.512113         0.065427         0.333032
 O         2.646782         0.501837         0.266782
 H        -2.126684        -2.108316         0.301187
 H        -2.340039        -2.134957        -1.553317
 H        -0.692826        -2.538233        -0.720419
 H        -2.868777         0.206775        -2.587092
 H        -1.996627         1.555023        -1.471211
 H        -0.187762        -0.367801        -2.952685
 H         1.296330         1.224788        -1.834643
 H        -0.041421         2.245733        -1.747175
 H         0.307764         1.743045         0.618076
 H         1.347469        -1.027055         0.756922
