19
Iteration:  2159
 C        -1.597514        -1.853624        -0.796331
 C        -1.269707        -0.409725        -0.955538
 C        -2.023372         0.418546        -1.867637
 C        -0.581373         0.261639        -2.111642
 C         0.260067         1.386037        -1.510925
 C         0.340478         1.067103        -0.020162
 O        -0.791458         0.250786         0.259298
 C         1.506493         0.141378         0.463720
 O         2.634531         0.258014         0.174967
 H        -2.154116        -2.085260         0.134318
 H        -2.165458        -2.357146        -1.565777
 H        -0.677100        -2.475305        -0.679225
 H        -2.764780        -0.208040        -2.393047
 H        -2.404941         1.354125        -1.452442
 H        -0.286305        -0.337331        -2.951827
 H         1.263496         1.553407        -1.987290
 H        -0.162441         2.360257        -1.983713
 H         0.231199         2.033123         0.557731
 H         1.021198        -0.629348         1.145841
