19
Iteration:  1791charge 0 multiplicity 1
 C        -1.438583        -1.887368        -0.695327
 C        -1.296355        -0.389604        -1.019610
 C        -2.108290         0.388418        -1.900759
 C        -0.592515         0.352032        -2.124286
 C         0.255924         1.446443        -1.509332
 C         0.339706         1.083314        -0.002014
 O        -0.833345         0.289815         0.233617
 C         1.508342         0.176767         0.563511
 O         2.611819         0.076186         0.091642
 H        -2.225591        -2.124662        -0.052646
 H        -1.742044        -2.405482        -1.576809
 H        -0.477726        -2.174721        -0.331481
 H        -2.596450        -0.297189        -2.620033
 H        -2.645364         1.301349        -1.584164
 H        -0.374975        -0.210531        -3.059691
 H         1.340601         1.458037        -1.924516
 H        -0.340531         2.358725        -1.829637
 H         0.285885         2.014775         0.657240
 H         1.307275        -0.335567         1.557530
