19
Iteration:   388
 C        -1.461697        -1.832548        -0.749992
 C        -1.363214        -0.330572        -0.907859
 C        -2.087004         0.451509        -1.922293
 C        -0.595735         0.210405        -2.085859
 C         0.297586         1.332638        -1.467704
 C         0.307573         1.025932        -0.013738
 O        -0.949097         0.364163         0.282375
 C         1.543749         0.101211         0.393780
 O         2.708638         0.179473         0.125666
 H        -2.045265        -2.254292         0.058363
 H        -1.741375        -2.291810        -1.648924
 H        -0.406397        -2.108041        -0.699466
 H        -2.765114        -0.166592        -2.615077
 H        -2.637004         1.450009        -1.648671
 H        -0.200943        -0.339476        -2.965101
 H         1.341287         1.317763        -1.831426
 H        -0.032453         2.318913        -1.784176
 H         0.442296         1.929960         0.614453
 H         1.197984        -0.571976         1.226420
