19
Iteration:  2416
 C        -1.681532        -1.905818        -0.764816
 C        -1.348770        -0.459875        -1.026162
 C        -2.097879         0.526375        -1.865867
 C        -0.676884         0.277794        -2.169026
 C         0.291275         1.311293        -1.617871
 C         0.376250         1.001335        -0.138466
 O        -0.777652         0.092475         0.255749
 C         1.583738         0.351913         0.639892
 O         2.751182         0.289704         0.256186
 H        -2.242135        -1.859300         0.066734
 H        -2.141461        -2.528836        -1.583037
 H        -0.720134        -2.331926        -0.520457
 H        -2.969649         0.224898        -2.482956
 H        -2.260085         1.552246        -1.429950
 H        -0.347106        -0.257229        -3.068152
 H         1.347928         1.239861        -2.023057
 H        -0.038476         2.385698        -1.819449
 H         0.224075         1.883596         0.595175
 H         1.227663        -0.182863         1.570371
