19
Iteration:  4885charge 0 multiplicity 1
 C        -1.743765        -1.783729        -0.712384
 C        -1.352963        -0.381354        -1.089970
 C        -1.851781         0.438419        -2.323110
 C        -0.370210         0.026416        -2.224501
 C         0.543347         0.987809        -1.551316
 C         0.221233         1.021987        -0.106014
 O        -0.888271         0.162969         0.147691
 C         1.374397         0.399791         0.785529
 O         2.541289         0.604206         0.623225
 H        -2.023600        -1.750161         0.325751
 H        -2.696958        -2.335575        -1.059746
 H        -1.036377        -2.559615        -0.900006
 H        -2.528017        -0.142325        -2.914058
 H        -2.110975         1.487506        -2.321139
 H        -0.061540        -0.566694        -3.041854
 H         1.642636         0.661034        -1.572445
 H         0.598729         1.945344        -2.018409
 H         0.021786         1.962319         0.309905
 H         0.905216         0.004218         1.716299
