19
Iteration:  2558charge 0 multiplicity 1
 C        -1.851720        -1.823899        -0.856011
 C        -1.257536        -0.494929        -0.964417
 C        -2.014273         0.443070        -1.826261
 C        -0.591854         0.232178        -2.145160
 C         0.232896         1.304142        -1.547775
 C         0.384628         0.998976        -0.048244
 O        -0.782540         0.181458         0.269433
 C         1.635854         0.210920         0.558701
 O         2.740937         0.433829         0.213907
 H        -2.193343        -1.961466         0.144578
 H        -2.769798        -1.992231        -1.629594
 H        -1.163922        -2.785203        -1.132831
 H        -2.705288        -0.195798        -2.415652
 H        -2.442486         1.443240        -1.607237
 H        -0.069687        -0.115771        -3.061422
 H         1.257886         1.159472        -1.940222
 H        -0.299683         2.196046        -1.904498
 H         0.292476         1.891584         0.560929
 H         1.320825        -0.442768         1.396776
