19
Iteration:  4943
 C        -1.707504        -1.893482        -0.856055
 C        -1.311860        -0.438058        -0.999916
 C        -1.892715         0.352456        -2.233033
 C        -0.381387        -0.056549        -2.079596
 C         0.614780         1.052138        -1.627063
 C         0.232827         1.090060        -0.162158
 O        -0.962542         0.395707         0.110663
 C         1.344545         0.517996         0.839783
 O         2.543301         0.436561         0.641739
 H        -0.998888        -2.324036        -0.011749
 H        -2.764010        -1.922908        -0.694232
 H        -1.411113        -2.462668        -1.776084
 H        -2.562255        -0.002979        -3.031450
 H        -2.079249         1.392752        -1.966420
 H        -0.109471        -0.843562        -2.860860
 H         1.681136         0.751332        -1.751582
 H         0.303801         1.993977        -2.148971
 H         0.077843         2.088705         0.108736
 H         0.785536         0.012429         1.714748
