19
Iteration:  3358charge 0 multiplicity 1
 C        -1.746310        -1.885752        -0.858607
 C        -1.312860        -0.463969        -1.058573
 C        -2.084285         0.529479        -1.939249
 C        -0.632587         0.173434        -2.149932
 C         0.419011         1.174244        -1.571817
 C         0.356077         1.010634        -0.041232
 O        -0.797165         0.104139         0.238036
 C         1.536192         0.348766         0.627103
 O         2.724604         0.469052         0.374393
 H        -2.533456        -2.179010        -1.645871
 H        -0.908481        -2.690452        -0.831371
 H        -2.329426        -1.834073         0.061759
 H        -2.757343         0.192180        -2.734886
 H        -2.218854         1.547553        -1.590339
 H        -0.299229        -0.500590        -2.937375
 H         1.434002         1.186413        -1.914636
 H        -0.080011         2.076947        -1.804130
 H         0.216562         2.205712         0.266891
 H         1.227478        -0.334508         1.435716
