19
Iteration:  1003charge 0 multiplicity 1
 C        -1.665237        -1.901665        -0.738672
 C        -1.352381        -0.476015        -0.993357
 C        -2.061465         0.538559        -1.955772
 C        -0.623401         0.230159        -2.134060
 C         0.206183         1.349391        -1.522006
 C         0.334287         0.988891        -0.049832
 O        -0.846284         0.201180         0.218963
 C         1.599253         0.249141         0.568125
 O         2.830583         0.273404         0.208544
 H        -2.234372        -1.931446         0.173037
 H        -2.245278        -2.295822        -1.627152
 H        -0.790658        -2.552937        -0.563192
 H        -2.860217         0.066114        -2.577171
 H        -2.211177         1.594171        -1.643460
 H        -0.122524        -0.326115        -2.964206
 H         1.198933         1.392514        -2.088786
 H        -0.277358         2.287496        -1.604364
 H         0.176456         1.896350         0.588618
 H         1.382646         0.013237         1.560960
