19
Iteration:  2731charge 0 multiplicity 1
 C        -1.675599        -1.893427        -0.751527
 C        -1.262909        -0.417138        -1.003813
 C        -2.079260         0.518106        -1.984896
 C        -0.584181         0.220516        -2.103719
 C         0.423823         1.204290        -1.432971
 C         0.315610         0.971240         0.071325
 O        -0.939236         0.230071         0.260267
 C         1.559436         0.248027         0.520921
 O         2.703967         0.399975         0.057894
 H        -2.036159        -1.987501         0.209255
 H        -2.450742        -2.362542        -1.450279
 H        -0.769823        -2.442063        -0.812376
 H        -2.642974        -0.158094        -2.597579
 H        -2.528305         1.449296        -1.644882
 H        -0.433718        -0.296130        -3.027448
 H         1.493212         1.216851        -1.739992
 H         0.078639         2.296201        -1.663993
 H         0.342692         1.901674         0.645084
 H         1.354526        -0.430302         1.393275
