19
Iteration:  2933charge 0 multiplicity 1
 C        -1.424859        -1.879114        -0.595930
 C        -1.322948        -0.340240        -1.018830
 C        -2.045358         0.409095        -2.004347
 C        -0.492151         0.282410        -2.172872
 C         0.312021         1.454311        -1.437746
 C         0.306164         0.998807         0.097920
 O        -0.935625         0.285032         0.195770
 C         1.494478         0.195135         0.518146
 O         2.573812         0.102607         0.030446
 H        -1.690207        -1.979869         0.532035
 H        -2.137258        -2.285388        -1.286818
 H        -0.456839        -2.396961        -0.728204
 H        -2.842869         0.043042        -2.706622
 H        -2.360544         1.396102        -1.556897
 H        -0.188407        -0.233143        -3.059953
 H         1.291141         1.539103        -1.857377
 H        -0.375797         2.249542        -1.649395
 H         0.331436         1.797750         0.719763
 H         1.291203        -0.297893         1.517712
