19
Iteration:    75
 C        -1.861401        -1.842566        -0.932461
 C        -1.426794        -0.440006        -0.973046
 C        -2.222964         0.676031        -1.865167
 C        -0.780030         0.235678        -2.089453
 C         0.410432         1.051897        -1.605732
 C         0.442841         0.856626        -0.055827
 O        -0.619368        -0.035226         0.204057
 C         1.677293         0.547167         0.753005
 O         2.787321         0.431020         0.233273
 H        -2.557135        -2.062802        -0.130885
 H        -2.240873        -2.069910        -1.839683
 H        -0.968258        -2.412917        -0.784953
 H        -2.792794         0.271848        -2.736322
 H        -2.521448         1.592834        -1.286157
 H        -0.640193        -0.276562        -3.025513
 H         1.401782         0.722834        -2.085668
 H         0.164765         2.102475        -1.832255
 H         0.075660         1.861444         0.309899
 H         1.537462         0.397518         1.831964
