19
Iteration:  3749
 C        -2.258051        -1.723657        -1.016480
 C        -1.423879        -0.463739        -1.037009
 C        -1.828566         0.715403        -1.784297
 C        -0.559897         0.089415        -2.235432
 C         0.684790         0.591798        -1.746145
 C         0.381070         0.668516        -0.192751
 O        -0.660044        -0.284585         0.187047
 C         1.683996         0.476353         0.538017
 O         2.494889         1.328666         0.887580
 H        -3.071644        -1.651818        -0.330009
 H        -2.910977        -1.861744        -1.976088
 H        -1.596805        -2.497925        -0.757060
 H        -2.741239         0.589001        -2.289092
 H        -1.816681         1.742963        -1.446463
 H        -0.750888        -0.485665        -3.168957
 H         1.436492        -0.081099        -1.994005
 H         1.007816         1.625969        -2.038643
 H         0.163203         1.784060        -0.150992
 H         1.783151        -0.619930         0.861500
