19
Iteration:  3263
 C        -1.502292        -1.884699        -0.858533
 C        -1.285771        -0.371895        -0.944953
 C        -2.047711         0.515236        -1.902836
 C        -0.587100         0.188293        -2.137333
 C         0.452917         1.177533        -1.515558
 C         0.234635         1.056229        -0.022917
 O        -0.905024         0.281978         0.265592
 C         1.465041         0.151707         0.558665
 O         2.579494         0.404457         0.165362
 H        -0.663809        -2.467763        -1.296075
 H        -1.514749        -2.154457         0.143510
 H        -2.416849        -2.261781        -1.287804
 H        -2.874432         0.104330        -2.480764
 H        -2.104531         1.533588        -1.616452
 H        -0.255701        -0.590333        -2.807937
 H         1.453597         0.729813        -1.686624
 H         0.416114         2.239510        -1.930799
 H         0.128338         1.877625         0.693022
 H         1.281266        -0.489330         1.444386
