19
Iteration:  4308charge 0 multiplicity 1
 C        -2.096254        -1.781771        -0.766942
 C        -1.418060        -0.417635        -1.051555
 C        -2.047924         0.562658        -1.950603
 C        -0.644821        -0.051867        -2.253888
 C         0.519566         0.893802        -1.877651
 C         0.519918         0.930487        -0.205335
 O        -0.748216         0.107325         0.108169
 C         1.814981         0.358166         0.439632
 O         2.589044         0.863561         1.169953
 H        -1.819539        -2.663788        -1.576031
 H        -1.635214        -2.311598         0.125957
 H        -3.154779        -1.683202        -0.661167
 H        -2.835926         0.063816        -2.526915
 H        -2.315771         1.628343        -1.984116
 H        -0.681976        -0.620930        -3.161543
 H         1.461939         0.475581        -2.271439
 H         0.314462         1.849913        -2.250895
 H         0.260733         1.821071         0.208249
 H         2.195515        -0.518823        -0.131270
