19
Iteration:  3270charge 0 multiplicity 1
 C        -1.490992        -1.843491        -0.876247
 C        -1.256175        -0.444343        -0.966852
 C        -2.008782         0.560298        -1.900292
 C        -0.607025         0.191549        -2.091602
 C         0.439993         1.147326        -1.580234
 C         0.261482         1.019045        -0.006849
 O        -0.940650         0.275813         0.306780
 C         1.416412         0.244070         0.565845
 O         2.594555         0.395264         0.179156
 H        -0.792016        -2.567696        -1.450748
 H        -1.315687        -2.280737         0.246975
 H        -2.389300        -2.191865        -1.394845
 H        -2.910344         0.069067        -2.337443
 H        -2.174039         1.620103        -1.575735
 H        -0.332837        -0.635118        -2.830068
 H         1.441653         0.787917        -1.829703
 H         0.496241         2.163606        -1.964594
 H         0.318382         1.934490         0.579085
 H         1.133426        -0.635840         1.249202
