19
Iteration:  2560charge 0 multiplicity 1
 C        -1.845614        -1.830458        -0.866827
 C        -1.264002        -0.479929        -0.941899
 C        -2.005511         0.434702        -1.839807
 C        -0.595397         0.232911        -2.150710
 C         0.245860         1.297661        -1.544129
 C         0.379645         0.993391        -0.039500
 O        -0.785806         0.173381         0.263216
 C         1.596514         0.228732         0.544690
 O         2.759088         0.430125         0.217622
 H        -2.164447        -1.934988         0.111657
 H        -2.686050        -1.914338        -1.545360
 H        -1.210561        -2.695696        -1.085838
 H        -2.713823        -0.177378        -2.398197
 H        -2.366796         1.406542        -1.493615
 H        -0.084694        -0.153247        -3.037798
 H         1.231025         1.166984        -1.992654
 H        -0.371788         2.216448        -1.853030
 H         0.325037         1.862561         0.507934
 H         1.348589        -0.470847         1.344902
