19
Iteration:  4911charge 0 multiplicity 1
 C        -1.798758        -1.869436        -0.822263
 C        -1.227595        -0.506805        -1.041175
 C        -1.881319         0.342052        -2.141871
 C        -0.342129        -0.003836        -2.185474
 C         0.637197         1.072919        -1.682926
 C         0.232476         1.081109        -0.150074
 O        -0.930165         0.358470         0.112750
 C         1.314799         0.413450         0.879501
 O         2.531694         0.537726         0.630504
 H        -1.907386        -2.077539         0.315924
 H        -2.784068        -2.011250        -1.042339
 H        -1.407363        -2.751541        -1.383828
 H        -2.601872        -0.100474        -2.856274
 H        -2.131330         1.375875        -1.873609
 H        -0.154451        -0.562208        -3.173368
 H         1.733895         0.874394        -1.662100
 H         0.481010         2.088847        -2.183992
 H         0.038083         2.102894         0.199336
 H         0.898341        -0.137396         1.700341
