19
Iteration:   926
 C        -1.516193        -1.913869        -0.864147
 C        -1.301804        -0.464423        -0.925375
 C        -1.952216         0.654374        -1.717096
 C        -0.521716         0.095864        -2.028303
 C         0.408164         1.247014        -1.587811
 C         0.239608         1.071438        -0.019143
 O        -0.910457         0.224089         0.315445
 C         1.388614         0.301975         0.486348
 O         2.567639         0.284318         0.004437
 H        -2.407098        -2.257688        -0.302920
 H        -1.595934        -2.296507        -1.947596
 H        -0.530267        -2.321377        -0.410433
 H        -2.755123         0.400683        -2.456161
 H        -1.956529         1.743249        -1.369156
 H        -0.417148        -0.563750        -2.876524
 H         1.500616         0.884857        -1.743557
 H         0.503706         2.180886        -1.969897
 H         0.127631         1.927759         0.537159
 H         1.078209        -0.257170         1.475454
