19
Iteration:  4932
 C        -1.754724        -1.935087        -0.843729
 C        -1.266162        -0.511528        -1.027078
 C        -1.804526         0.377592        -2.120828
 C        -0.388370         0.008434        -2.157080
 C         0.555865         1.012411        -1.644149
 C         0.294260         1.105378        -0.137750
 O        -1.023649         0.424523         0.098405
 C         1.324469         0.546816         0.727333
 O         2.564014         0.447214         0.688104
 H        -1.625756        -2.551913         0.161395
 H        -2.793943        -2.129918        -0.884424
 H        -1.443601        -2.537759        -1.744520
 H        -2.471539        -0.071127        -2.862959
 H        -2.017446         1.401644        -1.825315
 H         0.122241        -0.834953        -2.766135
 H         1.659901         0.833870        -1.806172
 H         0.464202         2.066253        -2.044485
 H         0.098968         2.068706         0.209984
 H         0.831216         0.056547         1.619135
