19
Iteration:  1726charge 0 multiplicity 1
 C        -1.325694        -1.881409        -0.842140
 C        -1.304949        -0.366730        -0.904444
 C        -2.125601         0.478715        -1.910100
 C        -0.607475         0.312121        -2.053281
 C         0.351918         1.240455        -1.467942
 C         0.263351         1.050926         0.048093
 O        -0.942490         0.321253         0.271680
 C         1.479181         0.222308         0.578715
 O         2.575922         0.131633        -0.085554
 H        -2.260932        -2.153986        -0.191716
 H        -1.258455        -2.553203        -1.704141
 H        -0.483545        -2.124764        -0.168197
 H        -2.681134        -0.010769        -2.716351
 H        -2.577101         1.435483        -1.550707
 H        -0.110815        -0.330920        -2.804958
 H         1.390313         0.823780        -1.727102
 H         0.255247         2.327807        -1.755538
 H         0.392435         2.018140         0.776943
 H         1.422598         0.127856         1.656916
