19
Iteration:  4578
 C        -2.181306        -1.694349        -0.978760
 C        -1.354610        -0.439302        -1.093909
 C        -1.954023         0.751485        -1.748709
 C        -0.635260         0.192371        -2.251369
 C         0.732641         0.461606        -1.685186
 C         0.351363         0.716023        -0.151584
 O        -0.534440        -0.302702         0.071598
 C         1.544875         0.527002         0.736478
 O         2.472622         1.260336         0.711071
 H        -3.001673        -1.499541        -0.175633
 H        -2.500840        -2.077721        -2.035934
 H        -1.612594        -2.525031        -0.551381
 H        -2.857430         0.620263        -2.392404
 H        -1.906877         1.644270        -1.089123
 H        -0.512668        -0.217508        -3.296662
 H         1.306172        -0.465089        -1.864104
 H         1.408594         1.219685        -2.091052
 H        -0.009308         1.718360        -0.084739
 H         1.643376        -0.417148         1.338138
