19
Iteration:   982
 C        -1.668260        -1.826999        -0.712372
 C        -1.348766        -0.392715        -1.068278
 C        -2.131132         0.450944        -2.001369
 C        -0.621951         0.292961        -2.172878
 C         0.315050         1.335410        -1.512320
 C         0.325308         0.950370         0.005010
 O        -0.872547         0.135143         0.276783
 C         1.645990         0.364919         0.644417
 O         2.799119         0.235454         0.129556
 H        -2.327247        -1.878917         0.195005
 H        -2.201461        -2.302133        -1.629586
 H        -0.822489        -2.522104        -0.552866
 H        -2.699872        -0.195387        -2.702164
 H        -2.637840         1.340882        -1.607200
 H        -0.260394        -0.330615        -3.041694
 H         1.348894         1.322600        -1.885655
 H        -0.052408         2.268135        -1.459027
 H         0.172322         1.829178         0.511362
 H         1.471885        -0.078109         1.669370
