19
Iteration:   780charge 0 multiplicity 1
 C        -1.417299        -1.836586        -0.717716
 C        -1.277467        -0.391725        -1.007086
 C        -2.166095         0.440685        -1.920347
 C        -0.577266         0.295574        -2.073565
 C         0.424998         1.316547        -1.414872
 C         0.268789         0.919831         0.060491
 O        -1.035777         0.441098         0.194793
 C         1.569015         0.038222         0.598875
 O         2.636766         0.241232        -0.067178
 H        -2.327743        -2.031753        -0.077512
 H        -1.567885        -2.442674        -1.595601
 H        -0.450205        -2.266549        -0.150535
 H        -2.749709        -0.156915        -2.554858
 H        -2.613778         1.278917        -1.437658
 H        -0.193258        -0.194621        -3.010763
 H         1.433686         1.198581        -1.871808
 H        -0.009783         2.369697        -1.678515
 H         0.305997         1.827696         0.614188
 H         1.656815        -0.401910         1.590895
