19
Iteration:   800charge 0 multiplicity 1
 C        -1.400852        -1.888877        -0.769149
 C        -1.299796        -0.403375        -0.865584
 C        -2.071229         0.415077        -1.897313
 C        -0.640500         0.365458        -2.094490
 C         0.487519         1.225728        -1.458787
 C         0.338297         0.982132         0.038666
 O        -1.006849         0.425541         0.278548
 C         1.446746         0.144763         0.500735
 O         2.579770         0.240075        -0.042604
 H        -2.123086        -2.244948        -0.008156
 H        -1.712933        -2.224249        -1.746749
 H        -0.414673        -2.281251        -0.581421
 H        -2.576175        -0.088367        -2.684408
 H        -2.474792         1.380946        -1.625764
 H        -0.338514        -0.331971        -2.903601
 H         1.457893         0.859500        -1.748063
 H         0.278871         2.402989        -1.734924
 H         0.281435         1.859597         0.739073
 H         1.128497        -0.581870         1.256700
