19
Iteration:  2330
 C        -1.609799        -1.883996        -0.816689
 C        -1.397967        -0.401390        -0.996341
 C        -2.105532         0.558890        -1.939414
 C        -0.573908         0.202478        -2.121736
 C         0.390946         1.251597        -1.512633
 C         0.269048         0.961852         0.011239
 O        -0.916648         0.207096         0.335447
 C         1.633463         0.224864         0.562196
 O         2.725043         0.388957         0.078258
 H        -2.322958        -2.220120         0.015888
 H        -2.128094        -2.358999        -1.708498
 H        -0.735246        -2.392870        -0.573499
 H        -2.758329        -0.007357        -2.649394
 H        -2.308115         1.551096        -1.517065
 H        -0.280019        -0.458979        -2.925063
 H         1.453390         1.120776        -1.772589
 H        -0.056561         2.218819        -1.872155
 H         0.455883         1.715061         0.721205
 H         1.474726        -0.187359         1.609219
