19
Iteration:  4870
 C        -1.790189        -1.843912        -0.708076
 C        -1.367645        -0.438105        -1.124110
 C        -1.832878         0.500109        -2.307236
 C        -0.435712        -0.024055        -2.241248
 C         0.620999         0.993377        -1.630469
 C         0.218096         0.972798        -0.004008
 O        -0.960480         0.184580         0.174963
 C         1.388911         0.483076         0.863112
 O         2.594928         0.627506         0.588147
 H        -2.265649        -1.745582         0.267944
 H        -2.361405        -2.217347        -1.599487
 H        -0.764651        -2.329382        -0.692375
 H        -2.451766         0.055239        -3.152450
 H        -2.012588         1.587337        -2.153158
 H        -0.032349        -0.864112        -2.858712
 H         1.541843         0.552595        -1.850573
 H         0.431666         2.013020        -2.044814
 H         0.037360         2.101476         0.268055
 H         1.105747        -0.373024         1.632845
