19
Iteration:  4275charge 0 multiplicity 1
 C        -1.956118        -1.765076        -0.768548
 C        -1.412994        -0.372431        -0.964780
 C        -1.981589         0.610463        -1.969997
 C        -0.624090        -0.033247        -2.196994
 C         0.582358         0.850474        -1.794201
 C         0.446178         0.881853        -0.176103
 O        -0.746645         0.092866         0.174319
 C         1.669453         0.251847         0.327709
 O         2.443977         0.914791         1.008325
 H        -2.049487        -2.238580        -1.860766
 H        -1.229382        -2.244065        -0.039269
 H        -2.963271        -1.742028        -0.407867
 H        -2.748897         0.168908        -2.644542
 H        -2.086157         1.692426        -1.828324
 H        -0.383119        -0.643579        -3.023035
 H         1.490116         0.311384        -2.119567
 H         0.707180         1.789132        -2.264567
 H         0.380284         1.851178         0.121260
 H         2.046795        -0.654450        -0.117709
