19
Iteration:  4055
 C        -2.026617        -1.814688        -0.948483
 C        -1.381715        -0.409269        -1.028037
 C        -1.961858         0.762107        -1.818791
 C        -0.630552         0.103602        -2.241619
 C         0.682233         0.655705        -1.783552
 C         0.328079         0.836744        -0.256515
 O        -0.638213        -0.108123         0.169486
 C         1.473209         0.532101         0.711851
 O         2.602434         0.944994         0.725490
 H        -1.757049        -2.450844        -1.774118
 H        -1.639484        -2.389868        -0.035949
 H        -3.029058        -1.658666        -0.694789
 H        -2.845706         0.394411        -2.321331
 H        -1.881458         1.776645        -1.420259
 H        -0.584159        -0.564717        -3.129057
 H         1.333489        -0.216273        -1.805864
 H         1.019108         1.643661        -2.152453
 H        -0.027082         1.805807         0.092613
 H         1.203884        -0.227593         1.504771
