19
Iteration:  4313
 C        -2.100027        -1.785209        -0.757109
 C        -1.409977        -0.442647        -1.030973
 C        -2.084219         0.534165        -1.953854
 C        -0.602129        -0.024443        -2.235222
 C         0.525777         0.919632        -1.879657
 C         0.515983         0.901435        -0.293342
 O        -0.719883         0.100255         0.096821
 C         1.763835         0.342526         0.449565
 O         2.603971         0.877548         1.194838
 H        -1.865442        -2.416020        -1.508953
 H        -1.801396        -2.263843         0.148068
 H        -3.229634        -1.781494        -0.610478
 H        -2.857532         0.022834        -2.528384
 H        -2.124410         1.625938        -1.809768
 H        -0.715164        -0.529185        -3.236809
 H         1.450170         0.484134        -2.270152
 H         0.393228         1.987232        -2.303033
 H         0.323358         1.931737         0.290620
 H         1.984325        -0.554238        -0.207036
