19
Iteration:   934charge 0 multiplicity 1
 C        -1.560554        -1.916620        -0.898461
 C        -1.278331        -0.397362        -0.889550
 C        -1.937447         0.568597        -1.744575
 C        -0.527458         0.183817        -2.051523
 C         0.450239         1.173089        -1.587049
 C         0.223303         1.104450        -0.033469
 O        -0.930161         0.201111         0.345064
 C         1.425166         0.304215         0.473708
 O         2.554659         0.287915         0.013260
 H        -2.271291        -2.189248        -0.190085
 H        -1.644724        -2.411518        -1.808715
 H        -0.694880        -2.428570        -0.406817
 H        -2.782412         0.422792        -2.417936
 H        -1.836892         1.542277        -1.237679
 H        -0.291611        -0.339004        -2.936592
 H         1.544278         0.832662        -1.663127
 H         0.206823         2.246393        -2.046749
 H         0.060949         2.069328         0.595298
 H         1.175314        -0.327988         1.336933
