19
Iteration:  4788
 C        -1.776404        -1.788729        -0.724042
 C        -1.424170        -0.429018        -1.065582
 C        -1.860716         0.548021        -2.173203
 C        -0.460142         0.032532        -2.330679
 C         0.599195         0.923063        -1.652701
 C         0.245592         0.943007        -0.137159
 O        -0.887586         0.068394         0.143485
 C         1.437231         0.466037         0.840459
 O         2.600175         0.697283         0.669775
 H        -2.624143        -2.145571        -1.342747
 H        -1.044768        -2.579359        -0.886952
 H        -2.122462        -1.868285         0.283871
 H        -2.679827         0.229370        -2.795474
 H        -2.006215         1.568618        -1.928543
 H        -0.220458        -0.712216        -2.993956
 H         1.635920         0.594626        -1.984670
 H         0.560165         1.900798        -2.047889
 H         0.045849         2.033188         0.093124
 H         0.932310        -0.119434         1.707303
