19
Iteration:  2835charge 0 multiplicity 1
 C        -1.482242        -1.898479        -0.651801
 C        -1.234268        -0.396763        -1.043206
 C        -2.200895         0.479035        -1.916089
 C        -0.666775         0.298268        -2.206876
 C         0.293148         1.390629        -1.596809
 C         0.326219         1.034862         0.003927
 O        -0.865598         0.238026         0.176608
 C         1.568019         0.211443         0.606954
 O         2.725955         0.153782         0.201037
 H        -2.603141        -1.875299        -0.303429
 H        -1.299174        -2.428055        -1.591359
 H        -0.842300        -2.300467         0.225396
 H        -2.908746        -0.139859        -2.489455
 H        -2.715976         1.415964        -1.566824
 H        -0.232676        -0.108217        -3.114937
 H         1.209048         1.368030        -2.133410
 H        -0.170355         2.305417        -1.643601
 H         0.274849         1.892507         0.862702
 H         1.294619        -0.347126         1.542411
