19
Iteration:    80
 C        -1.863009        -1.831421        -0.912517
 C        -1.355083        -0.425027        -0.974242
 C        -2.202689         0.670578        -1.856148
 C        -0.764258         0.248412        -2.082690
 C         0.391828         1.084704        -1.616904
 C         0.426563         0.875178        -0.100936
 O        -0.669027        -0.048203         0.224757
 C         1.690753         0.568464         0.683938
 O         2.789900         0.399182         0.274141
 H        -2.610852        -2.123475        -0.150236
 H        -2.241692        -2.227813        -1.968162
 H        -1.032189        -2.584245        -0.739530
 H        -2.925347         0.185817        -2.499192
 H        -2.594193         1.496036        -1.320503
 H        -0.569795        -0.209122        -3.070990
 H         1.263636         0.716304        -2.067277
 H         0.285556         2.189804        -1.889953
 H         0.164799         1.793928         0.434144
 H         1.456763         0.337065         1.797034
