19
Iteration:  1131charge 0 multiplicity 1
 C        -1.708596        -1.940156        -0.783378
 C        -1.257213        -0.413838        -0.933063
 C        -2.166212         0.371522        -1.846154
 C        -0.622476         0.289683        -2.115719
 C         0.324944         1.323291        -1.619407
 C         0.384597         1.107440        -0.055590
 O        -0.806822         0.228048         0.288179
 C         1.582229         0.228247         0.366326
 O         2.754889         0.307841         0.345468
 H        -2.475186        -1.948967         0.033526
 H        -2.327732        -2.264344        -1.652888
 H        -0.855881        -2.712416        -0.688578
 H        -2.918387         0.091048        -2.641246
 H        -2.373192         1.397098        -1.441825
 H        -0.278615        -0.212279        -3.032834
 H         1.432712         1.246504        -1.899023
 H        -0.058214         2.396120        -1.980435
 H         0.243379         1.993745         0.446759
 H         1.010667        -0.669800         0.762090
