19
Iteration:   409charge 0 multiplicity 1
 C        -1.380706        -1.942264        -0.802791
 C        -1.359684        -0.378611        -0.822673
 C        -2.024675         0.546202        -1.910498
 C        -0.628899         0.173760        -1.999928
 C         0.329285         1.330873        -1.603568
 C         0.374895         0.999937        -0.019714
 O        -0.904790         0.385200         0.325694
 C         1.448731         0.103059         0.469040
 O         2.578078         0.237741         0.068234
 H        -2.218406        -2.068207        -0.247940
 H        -1.590283        -2.302345        -1.758822
 H        -0.483247        -2.411649        -0.512339
 H        -2.854050         0.230936        -2.669128
 H        -2.077780         1.715944        -1.599733
 H        -0.253379        -0.559895        -2.746090
 H         1.347853         1.359493        -2.182931
 H        -0.066408         2.372185        -1.731633
 H         0.324931         1.961420         0.528555
 H         0.990498        -0.775381         1.093422
