19
Iteration:   915charge 0 multiplicity 1
 C        -1.473771        -1.927992        -0.821449
 C        -1.344027        -0.379287        -0.888521
 C        -2.031088         0.646310        -1.818723
 C        -0.568521         0.153699        -2.067990
 C         0.436295         1.205879        -1.529048
 C         0.263580         1.027671        -0.044379
 O        -0.845390         0.234055         0.260616
 C         1.465533         0.300318         0.584880
 O         2.523561         0.261555         0.014613
 H        -2.423792        -2.289706        -0.391784
 H        -1.528764        -2.212533        -1.942847
 H        -0.536510        -2.462621        -0.371653
 H        -2.827088         0.326972        -2.538523
 H        -2.265153         1.631089        -1.288797
 H        -0.315345        -0.494100        -2.895905
 H         1.497233         1.031050        -1.885744
 H         0.029500         2.083772        -1.870771
 H         0.231086         1.939191         0.418522
 H         1.311504        -0.316875         1.575005
