19
Iteration:  3349charge 0 multiplicity 1
 C        -1.735985        -1.907550        -0.842690
 C        -1.336132        -0.450011        -1.029462
 C        -2.142159         0.508442        -1.963774
 C        -0.602500         0.236533        -2.167649
 C         0.404638         1.178373        -1.576679
 C         0.378868         0.996088        -0.102701
 O        -0.806633         0.095487         0.189856
 C         1.566846         0.356199         0.669625
 O         2.748474         0.445903         0.387672
 H        -2.333361        -2.329763        -1.744587
 H        -0.960980        -2.520047        -0.429923
 H        -2.358115        -1.721103         0.024739
 H        -2.925949         0.152283        -2.604771
 H        -2.304941         1.529696        -1.677000
 H        -0.249122        -0.418205        -2.925131
 H         1.326484         1.181063        -2.091516
 H         0.064963         2.251882        -1.623870
 H         0.148977         1.856490         0.644938
 H         1.134453        -0.179582         1.537387
