19
Iteration:   907
 C        -1.487789        -1.894338        -0.839250
 C        -1.338549        -0.367831        -0.909216
 C        -2.063964         0.564493        -1.872305
 C        -0.612684         0.241858        -2.072859
 C         0.421289         1.165058        -1.549356
 C         0.329758         1.026615        -0.011291
 O        -0.847777         0.232347         0.272405
 C         1.472623         0.295808         0.626619
 O         2.558605         0.244213         0.013400
 H        -2.363993        -2.292168        -0.216249
 H        -1.492480        -2.372566        -1.885656
 H        -0.648166        -2.357093        -0.312667
 H        -2.852718         0.222350        -2.546189
 H        -2.217160         1.529905        -1.374392
 H        -0.326610        -0.366365        -2.968315
 H         1.435433         1.115460        -1.855554
 H         0.008708         2.181837        -1.747285
 H         0.148365         2.022251         0.475585
 H         1.288419        -0.205345         1.575922
