19
Iteration:  1867charge 0 multiplicity 1
 C        -1.538291        -1.862210        -0.784740
 C        -1.233163        -0.379715        -0.911771
 C        -2.008802         0.406623        -1.838164
 C        -0.449739         0.225677        -2.072023
 C         0.350637         1.385098        -1.494331
 C         0.300078         1.070006        -0.016836
 O        -0.908546         0.273963         0.311530
 C         1.417472         0.156563         0.442515
 O         2.531867         0.250977         0.024620
 H        -2.181939        -1.959794         0.052651
 H        -1.893760        -2.447210        -1.661085
 H        -0.457190        -2.367777        -0.527460
 H        -2.689100        -0.043944        -2.639266
 H        -2.322782         1.435585        -1.560045
 H        -0.195734        -0.444017        -2.936615
 H         1.466807         1.222730        -1.790648
 H        -0.118249         2.398799        -1.802277
 H         0.201805         1.889209         0.593572
 H         1.158750        -0.620333         1.185527
