19
Iteration:  3761charge 0 multiplicity 1
 C        -2.308630        -1.657773        -0.983159
 C        -1.351739        -0.506828        -0.995695
 C        -1.850219         0.741309        -1.767108
 C        -0.625846        -0.029145        -2.215132
 C         0.726065         0.654436        -1.847557
 C         0.413304         0.712074        -0.226233
 O        -0.543953        -0.283702         0.152518
 C         1.605953         0.438711         0.612026
 O         2.419184         1.314618         0.903772
 H        -2.790031        -1.655749        -0.034178
 H        -2.962905        -1.558659        -1.957869
 H        -1.872376        -2.587047        -1.135571
 H        -2.673323         0.548718        -2.401911
 H        -1.646531         1.751267        -1.443058
 H        -0.525672        -0.486638        -3.224694
 H         1.594103         0.069258        -2.071378
 H         0.819637         1.660557        -2.314210
 H        -0.061086         1.673323         0.083791
 H         1.820504        -0.646694         0.889748
