19
Iteration:  4461
 C        -2.004434        -1.749194        -0.767614
 C        -1.435328        -0.467949        -1.090440
 C        -1.918911         0.801624        -1.780211
 C        -0.621548        -0.013355        -2.365749
 C         0.649587         0.699479        -1.823491
 C         0.326267         0.810604        -0.301779
 O        -0.624997        -0.123623         0.081156
 C         1.658419         0.377209         0.541163
 O         2.435667         1.091420         1.038039
 H        -3.183231        -1.661977        -0.794696
 H        -1.686458        -2.625962        -1.328588
 H        -1.971632        -2.238018         0.166235
 H        -2.786808         0.898476        -2.445046
 H        -1.653212         1.626246        -1.124116
 H        -0.737927        -0.656688        -3.301358
 H         1.697456         0.275711        -2.115844
 H         0.818863         1.681386        -2.182843
 H        -0.035561         1.951987         0.061634
 H         1.727479        -0.739648         0.426050
