19
Iteration:  3918
 C        -2.236592        -1.707046        -0.720322
 C        -1.416272        -0.503708        -1.060829
 C        -1.911537         0.688188        -1.908949
 C        -0.578070         0.110443        -2.265913
 C         0.750232         0.663759        -1.916021
 C         0.472033         0.752570        -0.239487
 O        -0.561469        -0.138309         0.045462
 C         1.643045         0.350313         0.531102
 O         2.347729         1.205862         1.059868
 H        -3.122517        -1.351518        -0.119061
 H        -2.540839        -2.241317        -1.532650
 H        -1.621610        -2.390299        -0.132266
 H        -2.665675         0.247489        -2.599496
 H        -2.025132         1.661839        -1.332502
 H        -0.629568        -0.409025        -3.277670
 H         1.454848        -0.014333        -2.208350
 H         0.899325         1.674769        -2.100702
 H         0.187669         1.757054         0.145080
 H         1.820222        -0.768557         0.647378
