19
Iteration:  3219
 C        -1.628412        -1.849986        -0.680907
 C        -1.290127        -0.425035        -1.013234
 C        -2.085049         0.379428        -1.985389
 C        -0.475030         0.291271        -2.179627
 C         0.270368         1.399202        -1.495022
 C         0.277593         0.965053         0.071229
 O        -0.919259         0.238881         0.203674
 C         1.591101         0.213246         0.541158
 O         2.692502         0.261968         0.157118
 H        -0.919571        -2.493343        -0.152931
 H        -2.490019        -2.006912        -0.132247
 H        -1.763355        -2.297393        -1.620659
 H        -2.734400        -0.056777        -2.759416
 H        -2.431830         1.355972        -1.680533
 H        -0.014207        -0.170365        -3.091214
 H         1.365208         1.322655        -1.732631
 H        -0.079074         2.493389        -1.620911
 H         0.424976         1.991460         0.619746
 H         1.349157        -0.349072         1.485724
