19
Iteration:   175
 C        -1.616861        -1.946566        -0.922268
 C        -1.380895        -0.435138        -0.963770
 C        -2.191217         0.567454        -1.832248
 C        -0.673793         0.294789        -2.085489
 C         0.465467         1.166774        -1.516667
 C         0.355643         0.883558         0.031852
 O        -0.858475         0.236990         0.270216
 C         1.643411         0.441324         0.656828
 O         2.644306         0.260856         0.048511
 H        -2.146294        -2.351264        -0.135670
 H        -2.096889        -2.208422        -1.805961
 H        -0.710655        -2.447524        -0.985381
 H        -2.830295         0.321411        -2.671086
 H        -2.400466         1.500501        -1.400786
 H        -0.475847        -0.311522        -2.998019
 H         1.488436         0.709121        -1.804285
 H         0.482251         2.243566        -1.798598
 H         0.216991         1.885501         0.488355
 H         1.679181         0.507631         1.782937
