19
Iteration:   591
 C        -1.493591        -1.818119        -0.783460
 C        -1.276570        -0.367847        -0.872703
 C        -2.176993         0.472413        -1.865393
 C        -0.602079         0.292422        -2.137336
 C         0.307476         1.297534        -1.593420
 C         0.400188         1.056586        -0.040470
 O        -0.845094         0.240951         0.295132
 C         1.495630         0.267864         0.514986
 O         2.648105         0.105655         0.134513
 H        -2.448078        -2.255951        -0.298471
 H        -1.673209        -2.206873        -1.903407
 H        -0.567435        -2.335284        -0.405195
 H        -2.813243        -0.223795        -2.453745
 H        -2.484991         1.500245        -1.539571
 H        -0.393657        -0.246804        -3.063605
 H         1.270876         1.164874        -1.996676
 H        -0.099990         2.298264        -1.779763
 H         0.294894         1.932439         0.603135
 H         1.225258        -0.102158         1.488324
