19
Iteration:  3124
 C        -1.344107        -1.840441        -0.584962
 C        -1.236456        -0.356109        -0.970284
 C        -2.128339         0.487351        -1.935001
 C        -0.569709         0.387677        -2.133008
 C         0.407575         1.341543        -1.469430
 C         0.308143         0.923713         0.033551
 O        -1.006059         0.313328         0.230177
 C         1.480404         0.121701         0.510135
 O         2.541860         0.160601        -0.018547
 H        -2.275002        -2.278242        -0.175719
 H        -1.219692        -2.485463        -1.656225
 H        -0.383039        -2.055228         0.059519
 H        -2.589236        -0.068074        -2.733066
 H        -2.697911         1.347426        -1.682766
 H        -0.149215        -0.264873        -2.897261
 H         1.373859         1.382569        -1.969822
 H        -0.095850         2.282464        -1.579071
 H         0.275687         1.785637         0.637971
 H         1.173049        -0.528628         1.381748
