19
Iteration:  1308
 C        -1.552094        -1.830139        -0.816460
 C        -1.370251        -0.381261        -0.942578
 C        -2.122248         0.507997        -1.890133
 C        -0.687395         0.276462        -2.135299
 C         0.479266         1.108028        -1.481693
 C         0.331762         0.839399        -0.038954
 O        -0.997072         0.285766         0.233933
 C         1.606096         0.191187         0.660723
 O         2.721311         0.481023         0.067658
 H        -2.072484        -2.011900         0.135093
 H        -2.236618        -2.316666        -1.690034
 H        -0.574246        -2.500278        -0.784976
 H        -2.781810         0.079951        -2.612371
 H        -2.305852         1.425494        -1.426295
 H        -0.406425        -0.212390        -3.058315
 H         1.458368         0.783313        -1.895208
 H         0.241444         2.198160        -1.638314
 H         0.289971         1.803294         0.553501
 H         1.578184        -0.564604         1.510954
