19
Iteration:  4560
 C        -2.147221        -1.683180        -1.015543
 C        -1.376271        -0.421945        -1.078615
 C        -1.881876         0.848163        -1.624488
 C        -0.590641         0.066028        -2.240773
 C         0.767165         0.510670        -1.676097
 C         0.326138         0.701886        -0.248045
 O        -0.618470        -0.333093         0.093325
 C         1.577957         0.453879         0.648410
 O         2.434370         1.313756         0.727577
 H        -3.234576        -1.701667        -0.584650
 H        -2.188900        -2.264133        -1.920137
 H        -1.823094        -2.345880        -0.232145
 H        -2.733384         0.680745        -2.261387
 H        -1.902361         1.847084        -1.190767
 H        -0.815591        -0.418454        -3.224773
 H         1.611316        -0.290221        -1.650936
 H         1.226548         1.378329        -2.128357
 H         0.116291         1.829393        -0.025356
 H         1.597071        -0.611464         1.108840
