19
Iteration:  4683charge 0 multiplicity 1
 C        -1.978766        -1.824921        -0.849919
 C        -1.356499        -0.494395        -1.142182
 C        -1.890784         0.698492        -2.019026
 C        -0.566970         0.079167        -2.284753
 C         0.666677         0.718264        -1.573296
 C         0.303970         0.782943        -0.129416
 O        -0.793324        -0.006529         0.158687
 C         1.487419         0.489681         0.832025
 O         2.589031         0.991245         0.577619
 H        -1.382589        -2.647516        -0.524287
 H        -2.669383        -1.800127        -0.026315
 H        -2.533240        -2.302138        -1.733900
 H        -2.654356         0.607713        -2.798780
 H        -1.950147         1.574039        -1.370722
 H        -0.292252        -0.403431        -3.245176
 H         1.473742         0.025729        -1.694600
 H         0.894378         1.777401        -1.947040
 H         0.019843         1.815845         0.064864
 H         1.389478        -0.295099         1.691875
