19
Iteration:  1717
 C        -1.305844        -1.851837        -0.778510
 C        -1.323675        -0.377955        -0.960156
 C        -2.084793         0.489314        -1.970511
 C        -0.607222         0.305092        -2.061299
 C         0.386720         1.237527        -1.424086
 C         0.234963         1.000724         0.071507
 O        -0.971692         0.315916         0.332155
 C         1.564423         0.270842         0.527199
 O         2.534256         0.131210        -0.075085
 H        -2.275606        -2.266250        -0.095373
 H        -1.500829        -2.291348        -1.799973
 H        -0.368059        -2.032632        -0.258763
 H        -2.667237        -0.128666        -2.671405
 H        -2.623148         1.388628        -1.623481
 H        -0.429199        -0.185044        -3.057640
 H         1.337629         0.809024        -1.718370
 H         0.413814         2.252683        -1.820933
 H         0.054359         1.943157         0.666215
 H         1.676953        -0.045074         1.602070
