19
Iteration:  1456
 C        -1.571133        -1.904528        -0.863051
 C        -1.313904        -0.446135        -0.920536
 C        -2.023047         0.550987        -1.789524
 C        -0.594241         0.178466        -2.083797
 C         0.555752         1.196715        -1.556483
 C         0.270974         1.026048        -0.004261
 O        -0.896113         0.231268         0.327192
 C         1.457452         0.266527         0.472257
 O         2.571192         0.399125         0.064174
 H        -2.308807        -2.236625        -0.063183
 H        -1.937309        -2.248935        -1.812986
 H        -0.681861        -2.484974        -0.835229
 H        -2.927794         0.282714        -2.462981
 H        -2.181182         1.467941        -1.150411
 H        -0.383330        -0.604595        -2.802230
 H         1.659712         0.911705        -1.775492
 H         0.372155         2.289861        -1.881218
 H         0.166827         2.035255         0.449177
 H         1.039962        -0.426690         1.207103
