19
Iteration:    61
 C        -1.831841        -1.847698        -0.942530
 C        -1.499032        -0.340009        -0.977383
 C        -2.156774         0.671741        -1.788095
 C        -0.743360         0.213178        -2.173835
 C         0.474067         0.965631        -1.586302
 C         0.355296         0.904515        -0.041075
 O        -0.654997        -0.101655         0.215460
 C         1.711613         0.485258         0.775094
 O         2.734775         0.521792         0.182733
 H        -2.490083        -2.117354        -0.045461
 H        -2.463854        -2.199705        -1.831656
 H        -0.941372        -2.542569        -0.897809
 H        -3.099675         0.451703        -2.428834
 H        -2.187983         1.748453        -1.559754
 H        -0.598637        -0.455121        -3.030080
 H         1.495444         0.648178        -2.063333
 H         0.492456         2.225365        -1.876316
 H         0.170425         1.943121         0.508047
 H         1.640720         0.422115         1.855099
