19
Iteration:     3
 C        -2.023333        -1.806618        -0.938685
 C        -1.384673        -0.443916        -0.990359
 C        -2.055525         0.761299        -1.615933
 C        -0.735796         0.203854        -2.157561
 C         0.554888         0.870478        -1.663973
 C         0.359067         0.803564        -0.131610
 O        -0.611183        -0.171545         0.170573
 C         1.617674         0.467358         0.656286
 O         2.715393         0.800217         0.311610
 H        -2.701162        -1.972174        -0.078213
 H        -2.595642        -2.030061        -1.913894
 H        -1.233835        -2.607763        -0.891222
 H        -2.903396         0.510227        -2.155292
 H        -2.026796         1.692984        -1.081793
 H        -0.734491        -0.275014        -3.131320
 H         1.355321         0.202078        -1.942135
 H         0.696048         1.992466        -2.045318
 H         0.055111         1.841965         0.316583
 H         1.452328        -0.197995         1.502771
