19
Iteration:  4499charge 0 multiplicity 1
 C        -2.286562        -1.696109        -0.955203
 C        -1.366705        -0.440656        -1.027482
 C        -2.007686         0.664087        -1.877537
 C        -0.663341         0.088265        -2.300490
 C         0.692129         0.630833        -1.721793
 C         0.421784         0.737540        -0.154897
 O        -0.558403        -0.232848         0.165753
 C         1.769639         0.440868         0.510177
 O         2.481760         1.245326         0.956084
 H        -3.214656        -1.360974        -1.237539
 H        -1.951992        -2.354086        -1.818083
 H        -2.165924        -2.235446         0.069854
 H        -2.781106         0.361064        -2.585690
 H        -2.211177         1.649216        -1.414346
 H        -0.674715        -0.554992        -3.145882
 H         1.460528        -0.068287        -1.860170
 H         0.990696         1.681179        -2.034786
 H         0.076897         1.680271         0.076810
 H         2.001291        -0.595425         0.543696
