19
Iteration:  4342charge 0 multiplicity 1
 C        -1.982980        -1.747812        -0.700012
 C        -1.242186        -0.449676        -1.035579
 C        -1.997909         0.615458        -1.861466
 C        -0.645005         0.026367        -2.304064
 C         0.522262         0.868510        -1.871590
 C         0.495845         0.946035        -0.267512
 O        -0.596035         0.059974         0.124883
 C         1.586637         0.247909         0.392525
 O         2.362949         0.891240         1.078955
 H        -2.044319        -2.551843        -1.586425
 H        -1.536425        -2.126095         0.220826
 H        -3.039891        -1.548341        -0.441636
 H        -2.803353         0.071612        -2.341013
 H        -2.014550         1.670186        -1.619905
 H        -0.695021        -0.562199        -3.267387
 H         1.450272         0.406440        -2.202443
 H         0.550622         1.822597        -2.357501
 H         0.454871         1.856615         0.196382
 H         1.576893        -0.840651         0.126908
