19
Iteration:  2679
 C        -1.581277        -1.829293        -0.769799
 C        -1.326545        -0.352627        -0.896554
 C        -2.189321         0.451366        -1.788764
 C        -0.629517         0.269525        -2.181236
 C         0.274638         1.281953        -1.671820
 C         0.318594         1.022788        -0.111988
 O        -0.735628         0.183354         0.195513
 C         1.497420         0.215125         0.502248
 O         2.776426         0.293162         0.349486
 H        -2.547707        -2.137974        -0.294138
 H        -1.550956        -2.244168        -1.857778
 H        -0.830065        -2.555471        -0.194742
 H        -2.912858         0.106358        -2.478163
 H        -2.267098         1.472923        -1.460951
 H        -0.545838        -0.341743        -3.060850
 H         1.279871         1.128246        -2.013651
 H        -0.054864         2.259496        -1.677443
 H         0.303357         2.092476         0.396766
 H         1.118574        -0.625010         1.130562
