19
Iteration:  3164charge 0 multiplicity 1
 C        -1.425084        -1.869947        -0.803182
 C        -1.303010        -0.381633        -0.880860
 C        -1.995299         0.449317        -1.919077
 C        -0.498032         0.239790        -2.040084
 C         0.414301         1.299573        -1.482474
 C         0.240591         1.059916         0.078155
 O        -1.022784         0.331901         0.277609
 C         1.488204         0.174230         0.413727
 O         2.576853         0.224255         0.000113
 H        -1.697844        -2.048588         0.237079
 H        -2.221466        -2.152815        -1.340481
 H        -0.699090        -2.551662        -1.110421
 H        -2.583181        -0.200568        -2.582486
 H        -2.441546         1.428499        -1.604648
 H        -0.237868        -0.567858        -2.800652
 H         1.499811         1.279024        -1.698242
 H        -0.070283         2.306149        -1.568217
 H         0.277281         2.079254         0.673215
 H         1.247298        -0.636686         1.141478
