19
Iteration:  2612charge 0 multiplicity 1
 C        -1.553262        -1.827073        -0.741081
 C        -1.323173        -0.410179        -1.013531
 C        -2.207844         0.606669        -1.838936
 C        -0.679055         0.292157        -2.186130
 C         0.514588         1.110057        -1.511126
 C         0.321383         0.827884        -0.017324
 O        -0.912317         0.210916         0.295144
 C         1.585318         0.150407         0.453831
 O         2.648314         0.516698         0.187384
 H        -2.278026        -2.037208         0.050021
 H        -1.883830        -2.251445        -1.821294
 H        -0.479080        -2.235379        -0.353832
 H        -2.772954         0.220825        -2.686989
 H        -2.395538         1.573091        -1.389414
 H        -0.420979        -0.385396        -3.015246
 H         1.531770         0.810830        -1.784454
 H         0.329173         2.107377        -1.798028
 H         0.304584         1.879407         0.520228
 H         1.392661        -0.831682         1.002200
