19
Iteration:  3059charge 0 multiplicity 1
 C        -1.390811        -1.919198        -0.793156
 C        -1.191836        -0.316977        -0.877586
 C        -2.121148         0.359507        -1.842457
 C        -0.546384         0.307028        -2.156953
 C         0.288363         1.405593        -1.507815
 C         0.317225         1.089678         0.014841
 O        -0.911015         0.408079         0.281192
 C         1.417831         0.198651         0.503925
 O         2.551672        -0.000502         0.007438
 H        -2.372292        -2.324088        -1.025231
 H        -0.650756        -2.503893        -1.574861
 H        -0.986705        -1.949122         0.267288
 H        -2.747490        -0.289455        -2.394630
 H        -2.521016         1.279539        -1.457509
 H         0.035335        -0.206325        -2.916840
 H         1.328152         1.516325        -1.873321
 H        -0.104581         2.422932        -1.649716
 H         0.304718         1.941036         0.679624
 H         1.182012        -0.417366         1.421435
