19
Iteration:    15
 C        -2.049663        -1.915539        -0.937714
 C        -1.367665        -0.489463        -0.983952
 C        -2.007731         0.751459        -1.565125
 C        -0.650906         0.203733        -2.121579
 C         0.642057         0.926664        -1.634983
 C         0.372889         0.905243        -0.100730
 O        -0.629249        -0.071315         0.170313
 C         1.516141         0.412679         0.681691
 O         2.609276         0.751927         0.179982
 H        -2.663903        -2.180496        -0.041527
 H        -2.711097        -2.068257        -1.938102
 H        -1.142281        -2.609066        -1.014458
 H        -2.944580         0.586626        -1.970577
 H        -2.046783         1.649330        -0.985857
 H        -0.623571        -0.277829        -3.099207
 H         1.515340         0.317558        -1.867373
 H         1.067767         2.019989        -2.254471
 H         0.036657         1.988912         0.310984
 H         1.383624        -0.364749         1.396001
