19
Iteration:   213
 C        -1.611202        -1.857621        -0.861967
 C        -1.261554        -0.420315        -0.956554
 C        -2.121495         0.509496        -1.858208
 C        -0.614453         0.195708        -2.136811
 C         0.343633         1.288668        -1.541019
 C         0.258229         1.056010         0.031124
 O        -0.736912         0.207756         0.291622
 C         1.523822         0.312817         0.553942
 O         2.638263         0.221289         0.097768
 H        -2.241009        -1.976582         0.129962
 H        -2.139160        -1.930359        -1.879662
 H        -0.711004        -2.592315        -0.774788
 H        -2.979037         0.096375        -2.434289
 H        -2.141437         1.512904        -1.307438
 H        -0.265003        -0.373497        -2.983156
 H         1.266652         0.918961        -1.839782
 H         0.139184         2.298775        -1.856487
 H         0.253100         1.907901         0.725049
 H         1.200624        -0.262442         1.411663
