19
Iteration:  2097
 C        -1.481041        -1.914333        -0.815901
 C        -1.308880        -0.415805        -0.923470
 C        -2.089611         0.557873        -1.887209
 C        -0.625656         0.294120        -2.078637
 C         0.469479         1.150321        -1.498026
 C         0.304921         0.974119         0.094359
 O        -0.943877         0.253948         0.230700
 C         1.541176         0.258579         0.533986
 O         2.565864         0.341362        -0.023900
 H        -2.446626        -2.062092        -0.430000
 H        -1.388265        -2.427132        -1.783884
 H        -0.723298        -2.267846         0.049575
 H        -2.849366         0.170176        -2.569892
 H        -2.299787         1.475935        -1.363304
 H        -0.386357        -0.465332        -2.895276
 H         1.560665         0.879574        -1.623942
 H         0.234637         2.190945        -1.623626
 H         0.282855         2.063081         0.603035
 H         1.336638        -0.453195         1.407899
