19
Iteration:   486
 C        -1.554418        -1.789285        -0.765807
 C        -1.277343        -0.360121        -0.945597
 C        -2.052504         0.481788        -1.895597
 C        -0.563948         0.150556        -2.087041
 C         0.258381         1.385709        -1.544984
 C         0.334126         1.009458        -0.030831
 O        -0.947084         0.193663         0.290003
 C         1.586213         0.220079         0.551753
 O         2.689766         0.164263         0.046678
 H        -2.242063        -1.874643         0.016060
 H        -1.888195        -2.243732        -1.634021
 H        -0.641400        -2.291476        -0.492867
 H        -2.929098         0.004835        -2.452021
 H        -2.373992         1.559689        -1.666214
 H        -0.275895        -0.414304        -2.987838
 H         1.426327         1.638855        -1.857512
 H        -0.291409         2.341209        -1.801852
 H         0.172276         1.843349         0.698078
 H         1.400557         0.004928         1.593566
