19
Iteration:  4735charge 0 multiplicity 1
 C        -1.917558        -1.851532        -0.999037
 C        -1.330302        -0.478620        -1.023956
 C        -1.959317         0.533325        -2.001465
 C        -0.544580         0.030713        -2.195933
 C         0.660402         0.775208        -1.698034
 C         0.298419         1.067074        -0.088441
 O        -0.819119         0.131225         0.194574
 C         1.452958         0.533304         0.739966
 O         2.653284         0.772580         0.702227
 H        -1.636133        -2.802721        -1.702123
 H        -1.721700        -2.424912        -0.141492
 H        -3.064178        -1.723071        -1.040812
 H        -2.634119         0.095596        -2.708059
 H        -2.154149         1.552276        -1.820906
 H        -0.312658        -0.610361        -2.991912
 H         1.478363         0.025724        -1.857945
 H         0.810865         1.645669        -2.353275
 H        -0.019317         2.155508         0.270559
 H         0.997911        -0.186422         1.409857
