19
Iteration:  2087charge 0 multiplicity 1
 C        -1.504200        -1.913317        -0.829316
 C        -1.326995        -0.409212        -0.934908
 C        -2.030369         0.556865        -1.844707
 C        -0.573459         0.262662        -2.065759
 C         0.442561         1.228775        -1.510621
 C         0.260578         1.039820        -0.023496
 O        -0.909888         0.235370         0.312775
 C         1.455628         0.220981         0.537062
 O         2.597453         0.329897        -0.000043
 H        -2.475116        -2.163290        -0.398611
 H        -1.425620        -2.566629        -1.707806
 H        -0.756049        -2.384896        -0.051167
 H        -2.813591         0.126791        -2.466750
 H        -2.409012         1.401094        -1.306617
 H        -0.268029        -0.325291        -3.026022
 H         1.396568         0.870681        -1.981552
 H         0.509241         2.199835        -1.872337
 H         0.135154         2.022578         0.706248
 H         1.419046        -0.573432         1.347724
