19
Iteration:  4294
 C        -2.003681        -1.760618        -0.804472
 C        -1.402767        -0.402768        -1.005355
 C        -2.051433         0.578952        -2.064915
 C        -0.679435        -0.019239        -2.290767
 C         0.475833         0.802933        -1.750327
 C         0.391096         0.870850        -0.196317
 O        -0.733744         0.130826         0.177007
 C         1.887338         0.326880         0.293595
 O         2.553791         0.900888         1.163296
 H        -1.906067        -2.390969        -1.705380
 H        -1.581583        -2.136361         0.194961
 H        -3.081908        -1.708951        -0.543103
 H        -2.894786         0.160602        -2.621703
 H        -1.998433         1.600527        -1.669207
 H        -0.431153        -0.837399        -2.922344
 H         1.488525         0.463035        -2.121138
 H         0.443277         1.855602        -2.127582
 H         0.432053         1.974252         0.197935
 H         2.012284        -0.751432        -0.084803
