19
Iteration:  3521
 C        -1.727251        -1.889741        -0.929623
 C        -1.377287        -0.432670        -1.061519
 C        -2.120451         0.643428        -1.872205
 C        -0.700177         0.194985        -2.236117
 C         0.580035         0.929073        -1.617648
 C         0.367231         0.943801        -0.075426
 O        -0.834867        -0.002025         0.168503
 C         1.542751         0.499753         0.824694
 O         2.688966         0.596739         0.413782
 H        -0.924324        -2.233270        -0.255733
 H        -2.763649        -2.005577        -0.480399
 H        -1.614198        -2.366494        -1.855586
 H        -2.776844         0.417531        -2.693041
 H        -2.360896         1.523586        -1.298495
 H        -0.474261        -0.325470        -3.133326
 H         1.482975         0.277763        -1.793415
 H         0.729987         1.926388        -2.104845
 H         0.045404         1.899513         0.295364
 H         1.218339         0.193184         1.812211
