19
Iteration:  2210charge 0 multiplicity 1
 C        -1.434745        -1.859115        -0.717268
 C        -1.381029        -0.360295        -0.944563
 C        -2.179823         0.465124        -1.969451
 C        -0.603014         0.308810        -2.087019
 C         0.409918         1.272177        -1.491796
 C         0.361041         0.887873         0.092360
 O        -0.980114         0.342264         0.213858
 C         1.553241         0.069593         0.382677
 O         2.694083         0.378177         0.181343
 H        -1.981321        -2.232028         0.293304
 H        -2.141962        -2.354367        -1.456251
 H        -0.569996        -2.446333        -0.660628
 H        -2.826121        -0.079904        -2.681010
 H        -2.396920         1.518191        -1.705569
 H        -0.308168        -0.274541        -2.930906
 H         1.408597         1.204558        -1.841134
 H         0.107879         2.295305        -1.637032
 H         0.267268         1.925990         0.596385
 H         1.312228        -1.000646         0.711345
