19
Iteration:  3772charge 0 multiplicity 1
 C        -2.307030        -1.656184        -0.948245
 C        -1.307286        -0.467892        -1.040470
 C        -1.856862         0.759638        -1.775374
 C        -0.592951        -0.101152        -2.304551
 C         0.637385         0.636761        -1.758385
 C         0.454179         0.768693        -0.255363
 O        -0.460564        -0.305210         0.057685
 C         1.628290         0.435862         0.653482
 O         2.370115         1.308118         0.936412
 H        -2.834947        -1.744887        -0.023386
 H        -3.293243        -1.300703        -1.491299
 H        -1.910659        -2.567390        -1.178975
 H        -2.794138         0.772811        -2.273040
 H        -1.794902         1.707413        -1.259295
 H        -0.763537        -0.856109        -3.116343
 H         1.542235         0.141361        -2.002995
 H         0.726739         1.649193        -2.200844
 H         0.109575         1.802380         0.048344
 H         1.612328        -0.664541         0.947798
