19
Iteration:  1501charge 0 multiplicity 1
 C        -1.591368        -1.855621        -0.728111
 C        -1.356055        -0.361033        -0.985350
 C        -2.203785         0.419357        -1.953046
 C        -0.576102         0.277883        -2.158389
 C         0.336168         1.338376        -1.504787
 C         0.369973         0.933139        -0.045208
 O        -0.868401         0.173830         0.246932
 C         1.541190         0.220385         0.602103
 O         2.780808         0.305491         0.147591
 H        -1.976851        -1.765225         0.246389
 H        -2.329496        -2.357651        -1.396141
 H        -0.680353        -2.462085        -0.698965
 H        -2.776933         0.026681        -2.856175
 H        -2.534448         1.459132        -1.703083
 H        -0.289196        -0.165760        -3.153346
 H         1.381041         1.433282        -1.909636
 H        -0.200061         2.323380        -1.715578
 H         0.280223         1.722676         0.741913
 H         1.297244        -0.074841         1.593485
