19
Iteration:  3288charge 0 multiplicity 1
 C        -1.535042        -1.930879        -0.890686
 C        -1.361322        -0.383666        -0.906330
 C        -2.053694         0.529783        -1.817275
 C        -0.567757         0.200222        -2.131418
 C         0.497249         1.112197        -1.604268
 C         0.264149         1.086799        -0.106021
 O        -0.888300         0.265280         0.268729
 C         1.437561         0.219217         0.567049
 O         2.641475         0.396738         0.270100
 H        -0.908521        -2.457245        -1.564948
 H        -1.241570        -2.419015         0.032548
 H        -2.579694        -2.312175        -1.175611
 H        -2.603865         0.290005        -2.705557
 H        -2.306947         1.486177        -1.330016
 H        -0.457920        -0.329610        -3.055553
 H         1.535288         0.906127        -1.905982
 H         0.200789         2.121764        -1.901432
 H        -0.058736         2.096922         0.467773
 H         1.199952        -0.489263         1.381195
