19
Iteration:  3637
 C        -2.124441        -1.742058        -0.929847
 C        -1.315082        -0.465048        -1.115575
 C        -2.018046         0.597291        -1.871218
 C        -0.631235         0.174825        -2.244908
 C         0.623793         0.889353        -1.708591
 C         0.347504         0.793194        -0.214502
 O        -0.591006        -0.257932         0.121140
 C         1.522357         0.621055         0.847722
 O         2.685376         0.860376         0.680141
 H        -2.832979        -2.025042        -1.768460
 H        -1.330253        -2.582757        -0.799133
 H        -2.686154        -1.734578         0.096332
 H        -2.847301         0.248173        -2.537381
 H        -2.167503         1.594491        -1.387931
 H        -0.560393        -0.372670        -3.170499
 H         1.470062         0.243455        -1.983756
 H         0.748743         1.887427        -2.144326
 H        -0.221403         1.714950         0.067956
 H         1.082384         0.449522         1.850058
