19
Iteration:  1669
 C        -1.500534        -1.942704        -0.753649
 C        -1.179863        -0.424745        -0.864573
 C        -2.016362         0.439321        -1.853619
 C        -0.507460         0.306791        -2.148168
 C         0.286300         1.364577        -1.506104
 C         0.311497         1.106980        -0.030585
 O        -0.900847         0.263040         0.284949
 C         1.409666         0.262198         0.498229
 O         2.582598         0.122346         0.016191
 H        -2.013317        -2.185859         0.185700
 H        -2.224125        -2.113563        -1.544897
 H        -0.528498        -2.534325        -0.754994
 H        -2.683609         0.069215        -2.640984
 H        -2.379313         1.373098        -1.444476
 H        -0.125178        -0.221449        -2.991537
 H         1.369584         1.580949        -1.881267
 H        -0.225549         2.388566        -1.632754
 H         0.166897         2.104162         0.661985
 H         1.100647        -0.497576         1.312152
