19
Iteration:  3367
 C        -1.793770        -1.852852        -0.856208
 C        -1.308116        -0.439099        -0.980213
 C        -1.993170         0.547214        -1.919086
 C        -0.542299         0.100090        -2.172200
 C         0.373536         1.190287        -1.605301
 C         0.287734         0.983407        -0.025900
 O        -0.786175         0.137378         0.246208
 C         1.514958         0.327032         0.620459
 O         2.697550         0.504101         0.343117
 H        -2.555171        -2.044669        -1.616538
 H        -0.915663        -2.594264        -1.173842
 H        -2.146303        -2.284129         0.082874
 H        -2.720803         0.115561        -2.651445
 H        -2.290779         1.477532        -1.413901
 H        -0.417002        -0.389627        -3.165100
 H         1.438207         0.972470        -1.881820
 H         0.207541         2.161472        -2.037717
 H         0.118503         2.014277         0.531637
 H         1.244379        -0.475927         1.356580
