19
Iteration:  3141
 C        -1.364693        -1.910609        -0.713317
 C        -1.362726        -0.407478        -0.936092
 C        -2.038731         0.426850        -1.971151
 C        -0.565532         0.321110        -2.111480
 C         0.422750         1.336775        -1.411242
 C         0.291644         0.966097         0.072369
 O        -0.978148         0.414210         0.236375
 C         1.480435         0.069780         0.521152
 O         2.513236         0.248454        -0.062954
 H        -1.978197        -1.975023         0.194671
 H        -1.649402        -2.555368        -1.402818
 H        -0.443731        -2.253130        -0.389845
 H        -2.740947        -0.027931        -2.703904
 H        -2.426449         1.378930        -1.490060
 H        -0.204273        -0.102994        -3.095575
 H         1.453573         1.010242        -1.673151
 H         0.275737         2.446265        -1.616027
 H         0.368742         1.913959         0.754328
 H         1.416723        -0.580365         1.423262
