19
Iteration:  4445charge 0 multiplicity 1
 C        -2.016508        -1.850675        -0.802052
 C        -1.370296        -0.433554        -1.064213
 C        -1.909681         0.765805        -1.815521
 C        -0.695247         0.042750        -2.278168
 C         0.588058         0.693108        -1.898877
 C         0.480624         0.809985        -0.299728
 O        -0.670792        -0.027563         0.087889
 C         1.635606         0.354210         0.531414
 O         2.424797         1.062424         1.087699
 H        -3.039103        -1.963548        -0.863538
 H        -1.472369        -2.511367        -1.519348
 H        -1.711099        -1.864858         0.288895
 H        -2.856446         0.626478        -2.331880
 H        -1.824567         1.802343        -1.457312
 H        -0.732222        -0.463184        -3.228232
 H         1.398669         0.061635        -2.187789
 H         0.726141         1.722693        -2.402139
 H         0.268238         1.801995        -0.001881
 H         1.634035        -0.850185         0.634539
