19
Iteration:  2134charge 0 multiplicity 1
 C        -1.525571        -1.868134        -0.778033
 C        -1.308477        -0.377957        -0.953561
 C        -2.135996         0.459034        -1.942230
 C        -0.655260         0.296171        -2.105515
 C         0.383004         1.302134        -1.477969
 C         0.340650         0.935133         0.014897
 O        -0.962298         0.254916         0.282935
 C         1.606138         0.244730         0.538262
 O         2.717381         0.270993         0.071399
 H        -2.430423        -2.228863        -0.105255
 H        -1.725274        -2.357761        -1.776883
 H        -0.695745        -2.382257        -0.449912
 H        -2.733727        -0.044710        -2.710527
 H        -2.461380         1.487638        -1.682938
 H        -0.287154        -0.493726        -2.735283
 H         1.319854         1.322361        -1.947082
 H         0.072817         2.286793        -1.762270
 H         0.146256         1.960560         0.662808
 H         1.265104        -0.371884         1.476223
