19
Iteration:  4242
 C        -1.906038        -1.792186        -0.747326
 C        -1.330127        -0.498769        -1.035221
 C        -1.960203         0.628301        -1.865349
 C        -0.626360         0.026873        -2.277008
 C         0.584036         0.833049        -1.844812
 C         0.412142         0.967974        -0.235370
 O        -0.756814         0.107405         0.072617
 C         1.478441         0.292071         0.607866
 O         2.566703         0.890411         0.924415
 H        -2.641071        -2.116638        -1.677142
 H        -1.278227        -2.775028        -0.642740
 H        -2.382719        -1.708075         0.199495
 H        -2.807213         0.401294        -2.539982
 H        -1.875296         1.651001        -1.451251
 H        -0.455089        -0.446158        -3.209518
 H         1.365225         0.102703        -2.065664
 H         0.686451         1.801488        -2.260789
 H         0.327363         1.925306         0.092258
 H         1.287684        -0.787743         0.581137
