19
Iteration:  1657
 C        -1.547985        -1.923157        -0.779263
 C        -1.224841        -0.431062        -0.967268
 C        -1.994761         0.377470        -1.844692
 C        -0.535718         0.296505        -2.105574
 C         0.281758         1.505215        -1.537885
 C         0.300270         1.161654        -0.007865
 O        -0.856124         0.259523         0.335227
 C         1.442415         0.178322         0.428680
 O         2.614687         0.123964         0.086021
 H        -1.991930        -1.967779         0.139497
 H        -2.195001        -2.415736        -1.517112
 H        -0.672502        -2.667334        -0.805539
 H        -2.710057        -0.201409        -2.432638
 H        -2.249168         1.350420        -1.515658
 H        -0.144784        -0.423553        -2.777770
 H         1.320309         1.498724        -2.053300
 H        -0.291549         2.468275        -1.760019
 H         0.144252         2.204478         0.652648
 H         1.007111        -0.478692         1.284023
