19
Iteration:  3769
 C        -2.316659        -1.657980        -0.966692
 C        -1.292946        -0.469222        -1.018490
 C        -1.857703         0.757956        -1.768732
 C        -0.607994        -0.095878        -2.282369
 C         0.670579         0.646058        -1.783062
 C         0.444023         0.756237        -0.254586
 O        -0.484629        -0.299257         0.087494
 C         1.616245         0.421323         0.653141
 O         2.382815         1.315396         0.921550
 H        -2.902804        -1.717080        -0.072030
 H        -3.197297        -1.331500        -1.519808
 H        -1.832008        -2.656192        -1.155525
 H        -2.758148         0.763654        -2.360427
 H        -1.827092         1.732401        -1.289146
 H        -0.691634        -0.786025        -3.165809
 H         1.556001         0.157804        -2.061597
 H         0.769526         1.638697        -2.267207
 H         0.017248         1.780164         0.126647
 H         1.648210        -0.647070         0.880909
