19
Iteration:  2025
 C        -1.555309        -1.870613        -0.772822
 C        -1.346670        -0.430741        -0.971680
 C        -2.136417         0.448153        -2.005894
 C        -0.642113         0.325219        -2.144565
 C         0.308465         1.373736        -1.481716
 C         0.359806         0.951083        -0.033182
 O        -0.897762         0.234614         0.256857
 C         1.644227         0.263823         0.538786
 O         2.766164         0.215768         0.198657
 H        -2.111495        -1.976954         0.303738
 H        -2.387425        -2.147192        -1.489161
 H        -0.679088        -2.394441        -0.673502
 H        -2.726128        -0.305295        -2.569822
 H        -2.666856         1.324160        -1.644499
 H        -0.259806        -0.446875        -2.939656
 H         1.236768         1.440009        -2.096507
 H        -0.278602         2.473446        -1.578205
 H         0.214253         1.765817         0.530457
 H         1.193844        -0.184418         1.509044
