19
Iteration:    90charge 0 multiplicity 1
 C        -1.837448        -1.885783        -0.915368
 C        -1.328931        -0.433410        -0.953418
 C        -2.163401         0.597575        -1.757519
 C        -0.732628         0.306395        -2.186752
 C         0.403219         1.148380        -1.635938
 C         0.352833         0.956160        -0.121865
 O        -0.725579        -0.052207         0.257078
 C         1.637339         0.508735         0.614317
 O         2.842532         0.365628         0.301166
 H        -2.682926        -1.826725        -0.227675
 H        -2.317756        -2.118346        -1.942867
 H        -1.052390        -2.574176        -0.574648
 H        -2.990319         0.096755        -2.198510
 H        -2.351246         1.586137        -1.389324
 H        -0.528737        -0.281612        -3.105373
 H         1.280391         0.752193        -2.005374
 H         0.414256         2.168018        -1.907727
 H         0.096305         1.861073         0.367798
 H         1.309380         0.421771         1.723387
