19
Iteration:   416
 C        -1.399559        -1.870950        -0.813821
 C        -1.279225        -0.367513        -0.854980
 C        -2.017637         0.540470        -1.847528
 C        -0.615508         0.131041        -2.061518
 C         0.337458         1.289753        -1.527260
 C         0.339354         1.034083        -0.013348
 O        -0.892330         0.376643         0.308637
 C         1.390653         0.098852         0.441157
 O         2.558416         0.249427         0.058142
 H        -2.367268        -2.125248        -0.192091
 H        -1.526829        -2.386812        -1.867496
 H        -0.530165        -2.411714        -0.338755
 H        -2.830869         0.199330        -2.464464
 H        -2.333902         1.519135        -1.561657
 H        -0.327254        -0.358390        -2.968357
 H         1.419362         1.188579        -2.010837
 H         0.030426         2.296330        -1.869663
 H         0.529916         1.978233         0.545460
 H         1.211297        -0.698040         1.179240
