19
Iteration:  2776charge 0 multiplicity 1
 C        -1.591450        -1.857133        -0.857287
 C        -1.335532        -0.405759        -0.918695
 C        -1.987093         0.518242        -1.890607
 C        -0.455293         0.127374        -2.057733
 C         0.324804         1.171869        -1.458130
 C         0.267408         1.038306         0.030724
 O        -0.909603         0.274877         0.348978
 C         1.473172         0.240446         0.492286
 O         2.631065         0.371587        -0.008804
 H        -2.321770        -2.078790        -0.123045
 H        -2.072584        -2.228246        -1.783313
 H        -0.717793        -2.475616        -0.637229
 H        -2.720157         0.208903        -2.614467
 H        -2.071646         1.509389        -1.496083
 H         0.137178        -0.484954        -2.754265
 H         1.307913         1.007227        -1.984757
 H         0.009688         2.227578        -1.788745
 H         0.288491         2.011476         0.580506
 H         1.265634        -0.552497         1.262301
