19
Iteration:  4018
 C        -1.904138        -1.816457        -0.906412
 C        -1.458686        -0.400614        -1.097605
 C        -1.951706         0.795002        -1.863072
 C        -0.623103         0.106709        -2.244920
 C         0.683593         0.567630        -1.698873
 C         0.363001         0.698950        -0.150457
 O        -0.848635         0.004846         0.164566
 C         1.635738         0.362497         0.581008
 O         2.570997         1.107645         0.778599
 H        -2.317768        -2.377681        -1.734868
 H        -1.068154        -2.267209        -0.385940
 H        -2.854034        -1.808268        -0.220889
 H        -2.858961         0.658495        -2.444863
 H        -1.954540         1.753039        -1.363530
 H        -0.663814        -0.432468        -3.168683
 H         1.435758        -0.211231        -1.856688
 H         1.210408         1.410610        -2.141222
 H         0.099187         1.863191        -0.035430
 H         1.482476        -0.649493         1.031711
