19
Iteration:   304
 C        -1.510805        -1.835895        -0.857360
 C        -1.354167        -0.310754        -0.835819
 C        -2.074883         0.476298        -1.906850
 C        -0.566426         0.199486        -2.032355
 C         0.346587         1.248269        -1.506283
 C         0.356833         0.983185         0.009919
 O        -0.899622         0.328697         0.353113
 C         1.475834         0.165444         0.432876
 O         2.633041         0.269452         0.033207
 H        -2.334062        -2.392800        -0.191812
 H        -1.619178        -2.080511        -1.923298
 H        -0.540618        -2.268147        -0.355320
 H        -2.642575        -0.127484        -2.546468
 H        -2.313087         1.458512        -2.031240
 H        -0.105511        -0.519845        -2.753664
 H         1.378075         1.145597        -1.879625
 H        -0.067977         2.291769        -1.658598
 H         0.299743         1.945581         0.542440
 H         1.134928        -0.645733         1.160105
