19
Iteration:  1388charge 0 multiplicity 1
 C        -1.757466        -1.880754        -0.746572
 C        -1.278257        -0.451392        -0.985056
 C        -2.125603         0.476083        -1.910320
 C        -0.652486         0.314159        -2.172715
 C         0.326952         1.284213        -1.549478
 C         0.345862         0.964529        -0.049401
 O        -0.786707         0.144247         0.206454
 C         1.587076         0.353222         0.608340
 O         2.782400         0.310552         0.200863
 H        -2.784047        -2.010321        -0.173698
 H        -1.812725        -2.449616        -1.671068
 H        -1.011752        -2.537407        -0.248847
 H        -2.746751        -0.010975        -2.675500
 H        -2.667560         1.282167        -1.354765
 H        -0.332087        -0.135662        -3.123750
 H         1.451450         1.326251        -1.920351
 H        -0.103681         2.349150        -1.773911
 H         0.263612         1.819458         0.643027
 H         1.473787        -0.147769         1.630878
