19
Iteration:  4082charge 0 multiplicity 1
 C        -2.210123        -1.832967        -0.977430
 C        -1.351095        -0.524037        -1.057199
 C        -1.974380         0.667971        -1.831089
 C        -0.601857         0.014929        -2.241603
 C         0.661416         0.770184        -1.746100
 C         0.371826         0.821159        -0.177966
 O        -0.636228        -0.111443         0.094522
 C         1.533417         0.697065         0.876324
 O         2.699750         0.895885         0.652438
 H        -2.022845        -2.337168        -1.976364
 H        -2.149135        -2.458914        -0.114368
 H        -3.302673        -1.435174        -1.007566
 H        -2.872769         0.411427        -2.419229
 H        -1.884429         1.559220        -1.221314
 H        -0.591147        -0.382587        -3.229216
 H         1.551946         0.154260        -1.942882
 H         0.755967         1.793688        -2.156118
 H         0.122815         1.760713         0.230930
 H         1.246933         0.498957         1.945833
