19
Iteration:  1271
 C        -1.622994        -1.860548        -0.776728
 C        -1.335672        -0.437967        -0.940972
 C        -2.145815         0.484651        -1.843247
 C        -0.690889         0.261057        -2.155047
 C         0.332671         1.266513        -1.613012
 C         0.347813         1.061397        -0.041387
 O        -0.807780         0.145577         0.190485
 C         1.547324         0.236706         0.565585
 O         2.809279         0.335552         0.267155
 H        -2.512273        -1.988373        -0.116946
 H        -1.828523        -2.321106        -1.722072
 H        -0.710342        -2.272568        -0.306893
 H        -2.971525         0.140270        -2.513043
 H        -2.422128         1.550494        -1.512495
 H        -0.489381        -0.313273        -3.083671
 H         1.327052         1.137856        -1.914320
 H         0.108637         2.262345        -1.770742
 H         0.120447         2.169894         0.335019
 H         1.178667        -0.723233         1.133685
