19
Iteration:  3131
 C        -1.337095        -1.909618        -0.617870
 C        -1.325071        -0.374629        -1.005548
 C        -2.071289         0.474014        -1.934938
 C        -0.562649         0.406118        -2.136631
 C         0.433063         1.310896        -1.468717
 C         0.313858         0.940552         0.051992
 O        -1.001668         0.348780         0.236070
 C         1.449955         0.092756         0.532500
 O         2.532600         0.207055        -0.049686
 H        -2.223259        -2.174868         0.016916
 H        -1.413952        -2.386519        -1.457740
 H        -0.427453        -2.085944        -0.124275
 H        -2.586984        -0.227835        -2.602359
 H        -2.635616         1.403459        -1.634028
 H        -0.295017        -0.338883        -2.955244
 H         1.459330         1.398946        -1.843127
 H         0.080764         2.369903        -1.432656
 H         0.389880         1.905370         0.745123
 H         1.341692        -0.552526         1.433437
