19
Iteration:  4939
 C        -1.702125        -1.893964        -0.861183
 C        -1.298986        -0.489455        -0.989280
 C        -1.876661         0.359996        -2.210815
 C        -0.375854        -0.031144        -2.093748
 C         0.603398         1.047950        -1.637951
 C         0.248449         1.074137        -0.164811
 O        -0.977080         0.416821         0.104641
 C         1.365344         0.539532         0.804133
 O         2.542411         0.436272         0.658700
 H        -1.233443        -2.373216         0.007553
 H        -2.894386        -2.083192        -0.778193
 H        -1.503329        -2.491199        -1.724792
 H        -2.553887         0.044563        -2.977881
 H        -2.043832         1.394515        -1.930005
 H        -0.084355        -0.819064        -2.775510
 H         1.678327         0.749091        -1.708095
 H         0.296873         1.977816        -2.032198
 H         0.014010         2.150908         0.135179
 H         0.719133         0.010891         1.616866
