19
Iteration:  3237
 C        -1.579564        -1.885220        -0.740516
 C        -1.273121        -0.446626        -1.056453
 C        -2.037467         0.471926        -2.032939
 C        -0.617955         0.304131        -2.073281
 C         0.421855         1.302578        -1.468530
 C         0.324563         0.961304        -0.028842
 O        -0.962878         0.268599         0.244587
 C         1.568578         0.232488         0.596491
 O         2.654094         0.326100         0.139618
 H        -0.594824        -2.482247        -0.636864
 H        -2.200550        -1.976027         0.347029
 H        -2.306830        -2.429145        -1.390116
 H        -2.617234        -0.144783        -2.746023
 H        -2.544938         1.398758        -1.645752
 H        -0.300602        -0.327871        -2.954713
 H         1.406781         1.141804        -1.910744
 H        -0.039853         2.292063        -1.566831
 H         0.156459         1.664028         0.712359
 H         1.305474        -0.448257         1.477043
