19
Iteration:  3087
 C        -1.374547        -1.956174        -0.815542
 C        -1.219974        -0.358091        -0.802828
 C        -2.116224         0.363051        -1.875315
 C        -0.566166         0.278402        -2.074760
 C         0.265930         1.490266        -1.561497
 C         0.352370         1.107828        -0.049841
 O        -0.899605         0.423091         0.292889
 C         1.488464         0.190954         0.463523
 O         2.559228        -0.021170         0.097594
 H        -2.491063        -2.267423        -0.841670
 H        -0.797457        -2.343069        -1.549269
 H        -1.039178        -2.411546         0.085319
 H        -2.673022        -0.209689        -2.659159
 H        -2.527459         1.377211        -1.585645
 H        -0.114696        -0.150402        -3.049541
 H         1.221509         1.736812        -2.032806
 H        -0.342343         2.428427        -1.576563
 H         0.246643         2.067962         0.624413
 H         1.008783        -0.573032         1.124307
