19
Iteration:   829charge 0 multiplicity 1
 C        -1.406589        -1.788142        -0.787443
 C        -1.297174        -0.367875        -0.905385
 C        -2.034198         0.493569        -1.811734
 C        -0.552958         0.180797        -2.091463
 C         0.271202         1.330419        -1.577172
 C         0.329604         1.094957        -0.042231
 O        -0.864658         0.239074         0.272757
 C         1.423573         0.206263         0.481239
 O         2.575746         0.139409         0.129191
 H        -1.939838        -2.105600         0.114712
 H        -1.950904        -2.324577        -1.639728
 H        -0.374104        -2.153144        -0.729266
 H        -2.719011         0.043312        -2.579103
 H        -2.230841         1.570372        -1.501593
 H        -0.258674        -0.439697        -2.901344
 H         1.314172         1.360788        -1.984623
 H        -0.104248         2.227264        -1.937479
 H         0.194040         2.012478         0.632225
 H         0.892843        -0.566098         1.097227
