19
Iteration:  3036charge 0 multiplicity 1
 C        -1.308805        -1.886873        -0.632085
 C        -1.274843        -0.407082        -0.952193
 C        -2.078504         0.527228        -1.984628
 C        -0.614761         0.330555        -2.021227
 C         0.357820         1.369478        -1.449682
 C         0.270588         1.095096         0.044393
 O        -0.952092         0.280092         0.235291
 C         1.456680         0.172831         0.526702
 O         2.513973         0.059582        -0.095486
 H        -2.271315        -2.389360        -0.825888
 H        -0.607480        -2.469641        -1.434993
 H        -0.881444        -1.902790         0.411876
 H        -2.478195         0.140127        -2.871274
 H        -2.535434         1.322274        -1.428846
 H        -0.108250        -0.225380        -2.806837
 H         1.354944         1.136044        -1.836773
 H         0.160266         2.332616        -1.866236
 H         0.238851         1.943398         0.671814
 H         1.429588        -0.256818         1.555948
