19
Iteration:   755
 C        -1.463213        -1.847001        -0.634046
 C        -1.358778        -0.364147        -0.951063
 C        -2.046791         0.492598        -2.012115
 C        -0.548409         0.307642        -2.111633
 C         0.241399         1.397165        -1.427884
 C         0.325643         0.997110         0.011244
 O        -0.918043         0.242940         0.281239
 C         1.517095         0.156165         0.467683
 O         2.685229         0.135145         0.015707
 H        -2.422785        -2.110263        -0.157356
 H        -1.440744        -2.518329        -1.540499
 H        -0.689677        -2.131374         0.029260
 H        -2.617964        -0.153236        -2.711788
 H        -2.503323         1.434057        -1.632197
 H        -0.056305        -0.123064        -2.962093
 H         1.174042         1.328589        -1.942346
 H        -0.249911         2.537399        -1.613837
 H         0.282555         1.966079         0.565525
 H         1.249657        -0.473878         1.293034
