19
Iteration:   326
 C        -1.489872        -1.834596        -0.681294
 C        -1.242889        -0.421964        -0.993542
 C        -2.031264         0.541004        -1.901561
 C        -0.562096         0.218808        -2.107057
 C         0.293785         1.352402        -1.535375
 C         0.265184         1.089382         0.019954
 O        -0.939706         0.274888         0.286890
 C         1.510342         0.092630         0.408874
 O         2.657613         0.221638         0.083060
 H        -2.242300        -2.120227         0.206823
 H        -1.873351        -2.319384        -1.609818
 H        -0.526946        -2.367836        -0.246909
 H        -2.813466         0.249403        -2.521682
 H        -2.291228         1.346108        -1.356976
 H        -0.195167        -0.521401        -2.852349
 H         1.352980         1.285402        -1.810331
 H        -0.129869         2.362149        -1.780601
 H         0.146571         1.994654         0.629832
 H         1.172039        -0.819075         1.086037
