19
Iteration:  1894charge 0 multiplicity 1
 C        -1.580168        -1.906309        -0.693337
 C        -1.227846        -0.419871        -0.956204
 C        -2.102883         0.419600        -2.026597
 C        -0.558175         0.286311        -2.159456
 C         0.229003         1.423844        -1.442299
 C         0.345216         1.043215         0.022817
 O        -0.867741         0.287087         0.265849
 C         1.563908         0.190678         0.498855
 O         2.699334         0.190722         0.092432
 H        -2.546495        -1.936747        -0.089552
 H        -1.537086        -2.510269        -1.590299
 H        -0.866246        -2.365885        -0.148978
 H        -2.748793         0.039199        -2.771243
 H        -2.610861         1.287284        -1.611025
 H        -0.333545        -0.399300        -2.988596
 H         1.203786         1.426790        -1.838141
 H        -0.312915         2.344761        -1.642873
 H         0.205817         1.927965         0.768831
 H         1.224406        -0.424542         1.438613
