19
Iteration:  3787charge 0 multiplicity 1
 C        -2.320944        -1.611856        -0.857081
 C        -1.394997        -0.475099        -1.103509
 C        -1.819659         0.731214        -1.800605
 C        -0.683485        -0.043225        -2.313785
 C         0.635924         0.617411        -1.812803
 C         0.424317         0.706999        -0.269888
 O        -0.452319        -0.335061        -0.004102
 C         1.633564         0.490696         0.643865
 O         2.414587         1.324539         1.058712
 H        -2.236733        -1.767687         0.298256
 H        -3.319671        -1.476378        -1.239491
 H        -1.824263        -2.539381        -1.342636
 H        -2.883284         0.666647        -2.210821
 H        -1.472546         1.754473        -1.522407
 H        -0.456158        -0.492243        -3.252473
 H         1.591058        -0.075252        -2.082771
 H         0.835081         1.572229        -2.299639
 H         0.007005         1.612267         0.088168
 H         1.679041        -0.583534         1.064901
