19
Iteration:   154
 C        -1.543545        -1.804800        -0.882782
 C        -1.353029        -0.381592        -0.995155
 C        -2.089140         0.649534        -1.775981
 C        -0.692592         0.261217        -2.163494
 C         0.427623         1.054485        -1.554756
 C         0.255243         1.017156         0.025385
 O        -0.835237         0.045948         0.259085
 C         1.615412         0.450518         0.665111
 O         2.649082         0.267795         0.067791
 H        -2.215373        -1.994075        -0.140121
 H        -2.020313        -2.270563        -1.708388
 H        -0.681710        -2.320242        -0.665673
 H        -2.968588         0.205629        -2.220442
 H        -2.355843         1.523879        -1.266187
 H        -0.481028        -0.229188        -3.140511
 H         1.380573         0.585131        -1.867339
 H         0.461961         2.023125        -1.907321
 H        -0.040385         1.982361         0.434189
 H         1.465366        -0.003574         1.618694
