19
Iteration:  2925
 C        -1.405782        -1.867778        -0.601527
 C        -1.347371        -0.451357        -0.983685
 C        -1.993199         0.471887        -2.027779
 C        -0.558133         0.316551        -2.152446
 C         0.348527         1.440871        -1.512623
 C         0.282466         0.962627         0.063091
 O        -0.957393         0.322658         0.234024
 C         1.485051         0.177152         0.596917
 O         2.584944         0.133355        -0.006730
 H        -1.645731        -1.995909         0.533795
 H        -2.180417        -2.555424        -1.239814
 H        -0.434259        -2.359943        -0.825342
 H        -2.698505        -0.003890        -2.740342
 H        -2.405935         1.356777        -1.554266
 H        -0.199166        -0.166721        -3.072560
 H         1.343640         1.483924        -1.903751
 H        -0.049172         2.439664        -1.609352
 H         0.209160         1.833542         0.865575
 H         1.279179        -0.445575         1.505547
