19
Iteration:  2274charge 0 multiplicity 1
 C        -1.591631        -1.963358        -0.733544
 C        -1.293559        -0.412989        -0.928306
 C        -2.030203         0.444443        -1.785138
 C        -0.614871         0.343840        -2.130063
 C         0.315315         1.331014        -1.582020
 C         0.297677         1.029576        -0.066216
 O        -0.872144         0.248034         0.236429
 C         1.516884         0.186816         0.402155
 O         2.721092         0.297043         0.253836
 H        -2.654834        -1.941833        -0.430077
 H        -1.453857        -2.417033        -1.756314
 H        -0.935461        -2.394935        -0.013459
 H        -2.767080         0.099375        -2.543939
 H        -2.350935         1.440854        -1.422561
 H        -0.312174        -0.260684        -2.952680
 H         1.282406         1.277904        -2.129880
 H        -0.008762         2.351608        -1.902468
 H         0.369619         1.854710         0.525064
 H         1.061147        -0.757533         0.855322
