19
Iteration:  1019charge 0 multiplicity 1
 C        -1.657063        -1.870736        -0.816547
 C        -1.303263        -0.379783        -0.926353
 C        -2.137663         0.463826        -1.860341
 C        -0.549753         0.196607        -2.119124
 C         0.344538         1.325648        -1.577983
 C         0.385537         0.983999        -0.064013
 O        -0.809476         0.210747         0.241078
 C         1.532500         0.255681         0.569144
 O         2.674313         0.322490         0.185700
 H        -2.341749        -2.049290         0.098419
 H        -2.202539        -2.277317        -1.665078
 H        -0.706394        -2.405312        -0.624076
 H        -2.860546         0.040842        -2.528791
 H        -2.408256         1.391572        -1.381136
 H        -0.310725        -0.489390        -2.906268
 H         1.310257         1.448196        -1.983047
 H        -0.205201         2.291311        -1.828587
 H         0.372897         1.896752         0.486049
 H         1.148734        -0.596460         1.236619
