19
Iteration:  3450
 C        -1.807671        -1.848112        -0.869816
 C        -1.336600        -0.415988        -1.032339
 C        -2.032836         0.526272        -1.937976
 C        -0.625539         0.179160        -2.165952
 C         0.414665         1.062745        -1.584338
 C         0.372134         0.894703        -0.059301
 O        -0.817138         0.103053         0.147546
 C         1.602208         0.318982         0.751204
 O         2.696101         0.612336         0.403641
 H        -2.354351        -1.949430         0.047782
 H        -2.377462        -2.011574        -1.702722
 H        -0.884859        -2.477744        -0.904898
 H        -2.673674         0.035905        -2.690821
 H        -2.342604         1.526063        -1.645026
 H        -0.570630        -0.427084        -3.090917
 H         1.376149         0.738018        -2.023465
 H         0.223358         2.136861        -1.848036
 H         0.254179         2.023420         0.315060
 H         1.261432        -0.166737         1.703320
