19
Iteration:    58charge 0 multiplicity 1
 C        -1.839297        -1.840101        -0.937861
 C        -1.470426        -0.339769        -0.970091
 C        -2.146954         0.695889        -1.782674
 C        -0.728922         0.205997        -2.186152
 C         0.487043         0.974273        -1.594735
 C         0.343268         0.901893        -0.037140
 O        -0.684131        -0.113473         0.223296
 C         1.687543         0.493560         0.753399
 O         2.742542         0.533634         0.174119
 H        -2.429983        -2.131280        -0.046752
 H        -2.481871        -2.238204        -1.853912
 H        -0.956690        -2.538510        -0.927943
 H        -3.054256         0.397345        -2.243775
 H        -2.124901         1.724188        -1.518214
 H        -0.553648        -0.461365        -3.044131
 H         1.395397         0.561818        -1.953084
 H         0.531123         2.129870        -1.885996
 H         0.129526         1.864886         0.489707
 H         1.636336         0.348830         1.878105
