19
Iteration:  2058
 C        -1.559642        -1.891148        -0.824074
 C        -1.259351        -0.378675        -0.952503
 C        -2.048197         0.476290        -1.841812
 C        -0.621728         0.196947        -2.111668
 C         0.342476         1.339038        -1.522666
 C         0.330941         1.067875        -0.036326
 O        -0.801809         0.230914         0.253874
 C         1.509586         0.237976         0.519620
 O         2.621869         0.255526         0.146187
 H        -2.505852        -1.898335        -0.136767
 H        -1.829968        -2.382785        -1.794472
 H        -0.851915        -2.529808        -0.442012
 H        -2.853604        -0.033928        -2.389998
 H        -2.368697         1.365192        -1.298732
 H        -0.204596        -0.430259        -2.942938
 H         1.240921         1.288825        -2.149534
 H        -0.215791         2.344695        -1.673124
 H         0.112489         1.885159         0.542433
 H         1.039887        -0.485619         1.306069
