19
Iteration:   592
 C        -1.496353        -1.821800        -0.791853
 C        -1.274863        -0.367013        -0.871100
 C        -2.175698         0.467977        -1.853740
 C        -0.596368         0.292809        -2.147028
 C         0.298957         1.297616        -1.596066
 C         0.392341         1.056818        -0.034673
 O        -0.840595         0.251563         0.299423
 C         1.503888         0.266035         0.512217
 O         2.643720         0.104429         0.138393
 H        -2.459604        -2.231786        -0.305687
 H        -1.680944        -2.215305        -1.905112
 H        -0.560900        -2.351839        -0.418480
 H        -2.813437        -0.257483        -2.445849
 H        -2.501182         1.506652        -1.545179
 H        -0.381856        -0.231612        -3.074591
 H         1.289466         1.177099        -1.990183
 H        -0.084643         2.267829        -1.830225
 H         0.305881         1.943020         0.601418
 H         1.221529        -0.130346         1.488209
