19
Iteration:  3347
 C        -1.742714        -1.895717        -0.836039
 C        -1.337727        -0.434889        -1.019310
 C        -2.144092         0.503300        -1.967059
 C        -0.592426         0.241748        -2.174804
 C         0.387555         1.202157        -1.582150
 C         0.382379         0.966448        -0.108182
 O        -0.806682         0.096969         0.174410
 C         1.555852         0.357225         0.681818
 O         2.762776         0.440624         0.388855
 H        -2.264909        -2.378347        -1.742407
 H        -0.888053        -2.526208        -0.326032
 H        -2.418561        -1.807046         0.014685
 H        -2.964538         0.094338        -2.588555
 H        -2.352692         1.521007        -1.646061
 H        -0.246747        -0.392512        -3.003710
 H         1.310265         1.143206        -2.128694
 H         0.169533         2.249240        -1.668800
 H         0.105480         1.844942         0.762260
 H         1.161325        -0.150133         1.573356
