19
Iteration:   421charge 0 multiplicity 1
 C        -1.438262        -1.851245        -0.803603
 C        -1.245055        -0.368056        -0.884770
 C        -2.042471         0.520045        -1.816013
 C        -0.572705         0.171140        -2.096821
 C         0.352049         1.253297        -1.509203
 C         0.314217         1.052407        -0.016601
 O        -0.894482         0.369183         0.300164
 C         1.415801         0.101566         0.419439
 O         2.543847         0.249510         0.056868
 H        -2.248119        -2.225853        -0.257594
 H        -1.497019        -2.251882        -1.758472
 H        -0.616290        -2.285644        -0.254461
 H        -2.836135         0.013538        -2.445782
 H        -2.358873         1.552037        -1.420134
 H        -0.342733        -0.365146        -3.040127
 H         1.396832         1.074667        -1.834642
 H         0.001458         2.238144        -1.842994
 H         0.513791         1.954967         0.584177
 H         1.193104        -0.665384         1.236865
