19
Iteration:  3891charge 0 multiplicity 1
 C        -2.117232        -1.696577        -0.888939
 C        -1.388497        -0.442544        -1.097132
 C        -1.990539         0.740935        -1.834303
 C        -0.709453         0.003483        -2.308886
 C         0.655391         0.461512        -1.800939
 C         0.459341         0.737191        -0.296998
 O        -0.570040        -0.085272         0.073524
 C         1.712341         0.447652         0.540023
 O         2.390477         1.248763         1.158097
 H        -2.572158        -1.610098         0.089897
 H        -3.032498        -1.763736        -1.654421
 H        -1.410186        -2.566668        -1.001137
 H        -2.927096         0.642611        -2.354448
 H        -1.719601         1.659580        -1.403427
 H        -0.690851        -0.625838        -3.156733
 H         1.315318        -0.493115        -1.938459
 H         1.211552         1.399393        -2.145713
 H         0.167339         1.848033        -0.084959
 H         2.081776        -0.621135         0.406587
