19
Iteration:  3957charge 0 multiplicity 1
 C        -2.185428        -1.677401        -0.863712
 C        -1.346410        -0.431494        -1.029564
 C        -1.826352         0.647710        -1.939646
 C        -0.635204        -0.059404        -2.292751
 C         0.541015         0.721661        -1.857345
 C         0.308890         0.812304        -0.156979
 O        -0.606214        -0.125720         0.183169
 C         1.622883         0.442566         0.591516
 O         2.576056         1.097885         1.010034
 H        -3.291364        -1.553143        -1.086966
 H        -1.879820        -2.527791        -1.648825
 H        -1.997384        -1.974301         0.149067
 H        -2.699849         0.457184        -2.570435
 H        -1.787595         1.704225        -1.691351
 H        -0.545416        -0.686037        -3.139086
 H         1.496287         0.108135        -2.247646
 H         0.659224         1.731362        -2.407312
 H        -0.024431         1.850225        -0.128394
 H         1.813950        -0.638196         0.485282
