19
Iteration:   995
 C        -1.682145        -1.894129        -0.737801
 C        -1.286552        -0.441121        -0.942138
 C        -2.097906         0.524396        -1.999279
 C        -0.623691         0.238494        -2.183295
 C         0.211273         1.347076        -1.512876
 C         0.320268         0.936584        -0.006185
 O        -0.877009         0.180820         0.227437
 C         1.706104         0.333524         0.558599
 O         2.799585         0.244062         0.210701
 H        -2.307566        -1.968598         0.274263
 H        -2.335635        -2.371051        -1.557478
 H        -0.736397        -2.388014        -0.538226
 H        -2.728074         0.145807        -2.783568
 H        -2.337448         1.534474        -1.748803
 H        -0.373285        -0.166117        -3.193427
 H         1.158216         1.447017        -1.896919
 H        -0.281364         2.236693        -1.809100
 H         0.271363         1.701924         0.666867
 H         1.354306        -0.030409         1.640972
