19
Iteration:  1635charge 0 multiplicity 1
 C        -1.511617        -1.845960        -0.711103
 C        -1.238269        -0.357787        -0.916254
 C        -2.105678         0.373626        -1.931932
 C        -0.561964         0.298392        -2.093159
 C         0.239197         1.388228        -1.442878
 C         0.355553         1.035623        -0.016474
 O        -0.867469         0.288824         0.237482
 C         1.457450         0.170501         0.456986
 O         2.689401         0.172249         0.091264
 H        -2.147411        -2.044232         0.085679
 H        -1.942219        -2.175487        -1.667645
 H        -0.627664        -2.563720        -0.699023
 H        -2.575880        -0.161632        -2.751756
 H        -2.516076         1.319659        -1.644895
 H        -0.211993        -0.257041        -2.949789
 H         1.269974         1.518245        -1.924375
 H        -0.342853         2.359404        -1.591881
 H         0.160014         1.988328         0.676825
 H         1.175242        -0.628351         1.254014
