19
Iteration:    25
 C        -1.975822        -1.916138        -0.961693
 C        -1.364855        -0.475368        -0.952877
 C        -2.000582         0.718366        -1.565711
 C        -0.625674         0.239279        -2.134371
 C         0.649829         0.879797        -1.617879
 C         0.331712         0.973816        -0.087924
 O        -0.661563        -0.063223         0.215240
 C         1.530151         0.397114         0.613409
 O         2.586544         0.705714         0.156919
 H        -2.557600        -2.007011        -0.025568
 H        -2.744476        -1.994888        -1.849650
 H        -1.247016        -2.782505        -1.013114
 H        -2.790320         0.686268        -2.225671
 H        -1.933702         1.570569        -0.922845
 H        -0.622962        -0.198784        -3.131500
 H         1.523983         0.304814        -1.766195
 H         0.716454         2.057646        -2.035099
 H        -0.027907         2.010343         0.220858
 H         1.360370        -0.242536         1.469251
