19
Iteration:   725charge 0 multiplicity 1
 C        -1.559743        -1.846948        -0.787408
 C        -1.220163        -0.385316        -0.901026
 C        -2.031851         0.333264        -1.846739
 C        -0.471847         0.204678        -2.086238
 C         0.264599         1.470231        -1.474102
 C         0.388715         1.128718         0.046091
 O        -0.867541         0.310527         0.294022
 C         1.419777         0.183962         0.380727
 O         2.594455         0.135048         0.035159
 H        -2.554683        -1.877383        -0.240048
 H        -1.730188        -2.097457        -1.853571
 H        -0.827112        -2.609002        -0.249520
 H        -2.808729        -0.168838        -2.358926
 H        -2.329937         1.316581        -1.503766
 H         0.080694        -0.403372        -2.821392
 H         1.189135         1.442948        -1.998856
 H        -0.290362         2.375928        -1.592188
 H         0.264192         2.008510         0.601247
 H         0.911567        -0.696159         0.962682
