19
Iteration:   791
 C        -1.403682        -1.877161        -0.756026
 C        -1.327290        -0.357453        -0.907542
 C        -2.075325         0.413037        -1.871840
 C        -0.550452         0.349516        -2.082787
 C         0.380449         1.232237        -1.469991
 C         0.340102         0.937100         0.054236
 O        -1.056163         0.443380         0.218290
 C         1.526817         0.114486         0.549754
 O         2.576214         0.245575        -0.053015
 H        -2.207873        -2.123184         0.002182
 H        -1.649109        -2.292578        -1.713759
 H        -0.396449        -2.412343        -0.371675
 H        -2.544036        -0.090903        -2.661964
 H        -2.673200         1.189457        -1.478927
 H        -0.273004        -0.120203        -3.070710
 H         1.404209         0.907911        -1.805523
 H         0.411404         2.407516        -1.597610
 H         0.487303         1.805217         0.652966
 H         1.423869        -0.543721         1.393909
