19
Iteration:  4479
 C        -2.202093        -1.753908        -0.856554
 C        -1.373581        -0.479190        -1.073731
 C        -1.896559         0.736755        -1.835408
 C        -0.619731         0.084025        -2.227578
 C         0.630677         0.689789        -1.739508
 C         0.395163         0.832371        -0.223039
 O        -0.570903        -0.214232         0.073301
 C         1.644531         0.441526         0.471521
 O         2.428461         1.132154         0.983759
 H        -3.258037        -1.600023        -0.890706
 H        -1.868232        -2.714287        -1.405853
 H        -1.852388        -2.057106         0.146460
 H        -2.808926         0.414125        -2.364027
 H        -1.756593         1.772025        -1.512327
 H        -0.534174        -0.339447        -3.175214
 H         1.418545        -0.060235        -1.879135
 H         0.912205         1.615354        -2.309938
 H         0.213703         1.843345         0.034636
 H         1.879977        -0.678171         0.466678
