19
Iteration:   781
 C        -1.414912        -1.838294        -0.722207
 C        -1.283111        -0.385157        -1.000143
 C        -2.158433         0.441459        -1.913409
 C        -0.569822         0.295894        -2.072619
 C         0.415818         1.312944        -1.418537
 C         0.270498         0.919980         0.061177
 O        -1.039793         0.443303         0.194691
 C         1.574377         0.041261         0.591639
 O         2.625593         0.242219        -0.063305
 H        -2.318708        -2.043028        -0.081952
 H        -1.584657        -2.442061        -1.597967
 H        -0.437325        -2.297101        -0.158744
 H        -2.736380        -0.169665        -2.564689
 H        -2.638604         1.253889        -1.425161
 H        -0.183227        -0.161752        -3.023662
 H         1.435460         1.185420        -1.893224
 H         0.064872         2.325071        -1.672341
 H         0.339629         1.830614         0.583550
 H         1.668121        -0.417595         1.600695
