19
Iteration:  4025charge 0 multiplicity 1
 C        -1.923229        -1.813713        -0.906742
 C        -1.494887        -0.381980        -1.125915
 C        -1.939531         0.801731        -1.848957
 C        -0.630418         0.099538        -2.200919
 C         0.632855         0.550283        -1.681470
 C         0.359590         0.760599        -0.198616
 O        -0.755764        -0.011840         0.130668
 C         1.583026         0.369318         0.648834
 O         2.567044         1.083112         0.748632
 H        -2.043517        -2.642565        -1.749545
 H        -1.097169        -2.132450        -0.298751
 H        -2.789359        -1.860938        -0.262296
 H        -2.835050         0.706990        -2.535700
 H        -1.979421         1.847349        -1.374622
 H        -0.588361        -0.482677        -3.164984
 H         1.455943        -0.231745        -1.798463
 H         1.161239         1.427754        -2.096083
 H         0.161643         1.781231         0.134661
 H         1.527481        -0.678320         1.046164
