19
Iteration:   256
 C        -1.584052        -1.918493        -0.696118
 C        -1.280294        -0.420198        -1.008147
 C        -2.038798         0.557746        -1.922874
 C        -0.605248         0.316416        -2.128638
 C         0.379516         1.310360        -1.446673
 C         0.279406         1.002756         0.007140
 O        -0.912468         0.199317         0.206343
 C         1.564963         0.203733         0.504520
 O         2.673215         0.261098         0.038482
 H        -2.469681        -1.908382         0.025531
 H        -1.815237        -2.512325        -1.627207
 H        -0.835988        -2.332616         0.039580
 H        -2.943241         0.084792        -2.444642
 H        -2.392666         1.372369        -1.163012
 H        -0.245031        -0.215986        -2.987641
 H         1.387737         1.178772        -1.726651
 H         0.056006         2.280014        -1.663197
 H         0.215210         1.914560         0.616028
 H         1.292173        -0.372813         1.479184
