19
Iteration:   216charge 0 multiplicity 1
 C        -1.606764        -1.855930        -0.845313
 C        -1.273909        -0.414968        -0.940525
 C        -2.100022         0.529455        -1.868491
 C        -0.604993         0.209767        -2.146712
 C         0.334987         1.278985        -1.536778
 C         0.268921         1.052935         0.017524
 O        -0.719331         0.191905         0.284124
 C         1.513721         0.295048         0.537773
 O         2.610714         0.228680         0.104093
 H        -2.244069        -1.939365         0.147477
 H        -2.078351        -1.990662        -1.817130
 H        -0.698022        -2.590363        -0.727597
 H        -2.974430         0.083382        -2.311408
 H        -2.184108         1.452188        -1.351252
 H        -0.260517        -0.362038        -3.003361
 H         1.399091         0.953992        -1.880949
 H         0.036538         2.396027        -1.840326
 H         0.179933         1.951034         0.731973
 H         1.186776        -0.345666         1.417528
