19
Iteration:  2623charge 0 multiplicity 1
 C        -1.499249        -1.842906        -0.818196
 C        -1.370962        -0.319639        -0.991343
 C        -2.222255         0.560266        -1.773708
 C        -0.620828         0.256129        -2.107315
 C         0.505945         1.089978        -1.574683
 C         0.331504         0.868976        -0.006051
 O        -0.961321         0.262153         0.227115
 C         1.546219         0.046517         0.486530
 O         2.688559         0.551968         0.183563
 H        -2.400749        -1.920162        -0.212305
 H        -1.690157        -2.606494        -1.739070
 H        -0.565711        -2.350156        -0.226738
 H        -3.031983         0.192524        -2.402102
 H        -2.519169         1.510375        -1.356729
 H        -0.511733        -0.143299        -3.109454
 H         1.470054         0.710976        -1.946417
 H         0.558672         2.104641        -1.825947
 H         0.524949         1.857845         0.614689
 H         1.484662        -0.799378         1.239225
