19
Iteration:  4658
 C        -2.139622        -1.737566        -0.968718
 C        -1.359216        -0.452928        -1.060804
 C        -1.905814         0.639301        -1.878392
 C        -0.544113         0.077696        -2.240025
 C         0.741301         0.720186        -1.605140
 C         0.310823         0.929638        -0.168744
 O        -0.703365        -0.203466         0.118667
 C         1.475882         0.559348         0.750264
 O         2.594666         1.016497         0.633241
 H        -1.682084        -2.398436        -0.047962
 H        -3.179852        -1.699745        -0.609421
 H        -2.087876        -2.549696        -1.706177
 H        -2.557154         0.310175        -2.659776
 H        -2.107521         1.574448        -1.416847
 H        -0.387806        -0.595439        -3.023152
 H         1.572173        -0.055365        -1.618651
 H         1.042032         1.672645        -2.005060
 H        -0.134642         1.868827        -0.030833
 H         1.323264        -0.463068         1.345627
