19
Iteration:  3691charge 0 multiplicity 1
 C        -1.977315        -1.825830        -1.059373
 C        -1.386996        -0.371598        -1.042802
 C        -1.965687         0.801115        -1.741038
 C        -0.646519         0.104194        -2.199717
 C         0.761609         0.522929        -1.719766
 C         0.364111         0.725473        -0.151034
 O        -0.738277        -0.115204         0.208515
 C         1.534411         0.442015         0.694775
 O         2.529515         1.154148         0.668163
 H        -3.064198        -1.714829        -1.190674
 H        -1.472284        -2.319045        -1.892356
 H        -1.825737        -2.428694        -0.081025
 H        -2.750261         0.556192        -2.496050
 H        -1.846213         1.762987        -1.242165
 H        -0.768720        -0.272397        -3.183716
 H         1.405497        -0.195624        -2.095975
 H         1.122106         1.465896        -2.077085
 H        -0.066689         1.816903        -0.159157
 H         1.411656        -0.572850         1.230203
