19
Iteration:  3013charge 0 multiplicity 1
 C        -1.311717        -1.893036        -0.653040
 C        -1.303282        -0.407698        -0.985850
 C        -2.022650         0.510410        -1.893970
 C        -0.559221         0.275674        -2.151032
 C         0.467108         1.340980        -1.389010
 C         0.241272         0.999704         0.070227
 O        -1.007229         0.331691         0.297584
 C         1.485694         0.232398         0.538625
 O         2.426021         0.115456        -0.158700
 H        -2.353548        -2.306608        -0.843983
 H        -0.784615        -2.543335        -1.513362
 H        -0.837389        -1.976469         0.351401
 H        -2.681250        -0.023131        -2.549910
 H        -2.223373         1.527930        -1.593522
 H        -0.161433        -0.293731        -3.018425
 H         1.464548         1.262227        -1.757030
 H         0.174988         2.316433        -1.649800
 H         0.273868         1.922473         0.559692
 H         1.448543        -0.259632         1.542712
