19
Iteration:  3389charge 0 multiplicity 1
 C        -1.776442        -1.847761        -0.929151
 C        -1.313797        -0.434956        -0.972733
 C        -1.982109         0.546624        -1.853309
 C        -0.512556         0.144172        -2.111885
 C         0.562952         1.104912        -1.537994
 C         0.300246         0.945135        -0.023891
 O        -0.893408         0.123248         0.300415
 C         1.478518         0.296231         0.526404
 O         2.587880         0.613052         0.256067
 H        -2.825045        -2.048503        -1.233352
 H        -1.191683        -2.704324        -1.525457
 H        -1.742672        -2.228361         0.087684
 H        -2.771487         0.184596        -2.564419
 H        -2.027726         1.625222        -1.567765
 H        -0.202033        -0.666872        -2.809199
 H         1.621163         0.877695        -1.820272
 H         0.419626         2.098797        -1.947830
 H         0.203219         2.045849         0.233377
 H         1.325548        -0.524394         1.271626
