19
Iteration:    87charge 0 multiplicity 1
 C        -1.849526        -1.873731        -0.919846
 C        -1.323691        -0.425031        -0.956418
 C        -2.174095         0.623512        -1.802727
 C        -0.739147         0.288254        -2.146360
 C         0.389442         1.136248        -1.626465
 C         0.378580         0.926081        -0.126500
 O        -0.716189        -0.057468         0.248692
 C         1.654739         0.537593         0.635909
 O         2.829549         0.373090         0.296096
 H        -2.655931        -1.953431        -0.222381
 H        -2.247411        -2.140529        -1.828848
 H        -1.098763        -2.566233        -0.648110
 H        -2.998259         0.119119        -2.254578
 H        -2.496414         1.584035        -1.347511
 H        -0.536467        -0.232012        -3.074091
 H         1.310482         0.710656        -2.078181
 H         0.391891         2.113308        -1.890703
 H         0.149376         1.838200         0.440587
 H         1.352070         0.399818         1.688655
