19
Iteration:  2985charge 0 multiplicity 1
 C        -1.461033        -1.936770        -0.826744
 C        -1.251324        -0.417983        -0.909886
 C        -2.020152         0.364958        -1.901540
 C        -0.525578         0.249297        -2.004981
 C         0.363856         1.441217        -1.427763
 C         0.298082         1.096599         0.026534
 O        -0.906101         0.389659         0.318164
 C         1.431923         0.287205         0.478077
 O         2.530815         0.046484        -0.073156
 H        -2.476256        -2.048015        -0.564105
 H        -1.277220        -2.386633        -1.783336
 H        -0.831177        -2.316074        -0.019644
 H        -2.623698        -0.313803        -2.519504
 H        -2.469083         1.358832        -1.693710
 H        -0.040815        -0.322160        -2.787990
 H         1.412231         1.357628        -1.852604
 H        -0.124417         2.447308        -1.700475
 H         0.276543         2.085421         0.661499
 H         1.129188        -0.372578         1.321542
