19
Iteration:   320
 C        -1.472397        -1.809597        -0.733503
 C        -1.314215        -0.384499        -0.940507
 C        -1.988338         0.501127        -1.935268
 C        -0.567264         0.154325        -2.102290
 C         0.277831         1.324784        -1.538180
 C         0.250091         1.120034         0.042886
 O        -0.905625         0.288526         0.328522
 C         1.496436         0.072045         0.452274
 O         2.665778         0.234805         0.061888
 H        -2.202377        -2.066641        -0.082158
 H        -1.768956        -2.337447        -1.641813
 H        -0.622427        -2.276656        -0.408266
 H        -2.919176         0.212785        -2.542985
 H        -2.372046         1.459259        -1.323024
 H        -0.338772        -0.444539        -2.966776
 H         1.392581         1.333166        -1.860726
 H        -0.060803         2.296901        -1.901437
 H         0.264908         2.006920         0.719710
 H         1.283145        -0.811064         1.004745
