19
Iteration:  2509charge 0 multiplicity 1
 C        -1.586993        -1.860913        -0.802463
 C        -1.336367        -0.368614        -0.951616
 C        -2.094962         0.652724        -1.853608
 C        -0.675395         0.201482        -2.182475
 C         0.478183         1.131425        -1.561120
 C         0.249780         0.876197         0.058892
 O        -0.846062         0.127037         0.272030
 C         1.529843         0.233522         0.588406
 O         2.674784         0.481920         0.079846
 H        -2.401920        -2.028171         0.094241
 H        -1.860403        -2.421020        -1.695338
 H        -0.661569        -2.420305        -0.468305
 H        -2.863269         0.424333        -2.601480
 H        -2.217746         1.666226        -1.518006
 H        -0.543596        -0.358868        -3.096633
 H         1.491375         0.809538        -1.828992
 H         0.356875         2.173556        -1.902370
 H         0.117623         1.963116         0.519388
 H         1.557057        -0.455565         1.503450
