19
Iteration:  4315
 C        -2.106837        -1.780947        -0.751175
 C        -1.404497        -0.450802        -1.017718
 C        -2.094137         0.523468        -1.956613
 C        -0.597922        -0.013835        -2.238365
 C         0.526284         0.930610        -1.874249
 C         0.502560         0.895887        -0.319181
 O        -0.703925         0.098333         0.094000
 C         1.749408         0.335893         0.439283
 O         2.602890         0.881796         1.203390
 H        -1.875655        -2.381604        -1.576925
 H        -1.811233        -2.251850         0.228310
 H        -3.203976        -1.789052        -0.621524
 H        -2.867913         0.030127        -2.546411
 H        -2.056477         1.599424        -1.711141
 H        -0.661521        -0.488454        -3.194587
 H         1.485876         0.492032        -2.278058
 H         0.440274         1.985793        -2.294366
 H         0.350041         1.959280         0.252790
 H         1.931673        -0.623716        -0.177349
