19
Iteration:  2785charge 0 multiplicity 1
 C        -1.623048        -1.890605        -0.802779
 C        -1.292051        -0.445533        -0.945179
 C        -1.980750         0.463814        -1.904753
 C        -0.571001         0.158226        -2.069818
 C         0.354332         1.285659        -1.485638
 C         0.256308         1.077659         0.022954
 O        -0.888860         0.260428         0.297034
 C         1.561456         0.233770         0.519715
 O         2.620366         0.328418         0.035511
 H        -2.456214        -1.996191        -0.177044
 H        -1.944535        -2.239265        -1.845051
 H        -0.778748        -2.407796        -0.498343
 H        -2.793565         0.159654        -2.552889
 H        -2.055327         1.482020        -1.517528
 H        -0.198608        -0.547793        -2.808665
 H         1.506724         1.284684        -1.645165
 H         0.031105         2.379422        -1.876920
 H         0.276903         1.944926         0.572860
 H         1.247767        -0.592159         1.202924
