19
Iteration:   787charge 0 multiplicity 1
 C        -1.391865        -1.865842        -0.733443
 C        -1.319404        -0.352469        -0.945755
 C        -2.099456         0.426901        -1.879049
 C        -0.535103         0.318700        -2.078121
 C         0.376282         1.251592        -1.454192
 C         0.303853         0.919166         0.057475
 O        -1.058088         0.445944         0.200700
 C         1.592888         0.084382         0.545249
 O         2.562538         0.241942        -0.039468
 H        -2.220313        -2.088687        -0.068995
 H        -1.643883        -2.404121        -1.685673
 H        -0.582740        -2.331930        -0.350578
 H        -2.643103        -0.170072        -2.649803
 H        -2.751146         1.202318        -1.386939
 H        -0.211771        -0.042588        -3.030825
 H         1.342943         1.068583        -1.870573
 H         0.391921         2.437426        -1.634654
 H         0.515985         1.925326         0.611253
 H         1.597016        -0.502575         1.523232
