19
Iteration:  3168charge 0 multiplicity 1
 C        -1.451196        -1.855252        -0.839335
 C        -1.345122        -0.376577        -0.850363
 C        -1.954900         0.434620        -1.914455
 C        -0.496382         0.209236        -2.071516
 C         0.411180         1.342213        -1.481105
 C         0.242475         1.074224         0.060325
 O        -0.984096         0.325845         0.306078
 C         1.456510         0.170171         0.420746
 O         2.597171         0.225798         0.011814
 H        -1.653908        -2.049605         0.227221
 H        -2.458092        -2.354697        -1.243372
 H        -0.613357        -2.595302        -1.170228
 H        -2.614499        -0.196668        -2.488167
 H        -2.407550         1.346204        -1.657757
 H        -0.217257        -0.460904        -2.843715
 H         1.466176         1.347608        -1.727325
 H        -0.093493         2.266163        -1.615839
 H         0.236024         2.016071         0.574097
 H         1.196766        -0.638881         1.153453
