19
Iteration:   124charge 0 multiplicity 1
 C        -1.675615        -1.933114        -0.854075
 C        -1.293124        -0.471329        -0.961807
 C        -2.066176         0.708831        -1.681721
 C        -0.692745         0.276764        -2.049968
 C         0.460218         1.142384        -1.635654
 C         0.415224         1.059530        -0.122822
 O        -0.652370         0.022582         0.170773
 C         1.434081         0.366479         0.591808
 O         2.565791         0.361495         0.191246
 H        -2.561047        -1.881737        -0.144347
 H        -2.060364        -2.359354        -1.914609
 H        -1.042381        -2.753354        -0.394146
 H        -2.929008         0.289546        -2.254988
 H        -2.238123         1.619084        -1.129368
 H        -0.554831        -0.211344        -3.041444
 H         1.326493         0.787410        -2.048519
 H         0.243343         2.153192        -1.961998
 H         0.097131         2.003876         0.266556
 H         1.136956        -0.105734         1.589990
