19
Iteration:   346
 C        -1.518000        -1.907649        -0.612811
 C        -1.320717        -0.438783        -0.990631
 C        -2.041921         0.428139        -1.866634
 C        -0.562772         0.374392        -2.113141
 C         0.393921         1.429040        -1.482765
 C         0.347989         0.947448        -0.066352
 O        -0.876946         0.314649         0.178636
 C         1.459027         0.114771         0.419888
 O         2.592376         0.229952         0.106929
 H        -2.158399        -1.969951         0.397126
 H        -2.115315        -2.542499        -1.257976
 H        -0.597903        -2.500345        -0.184693
 H        -2.671137        -0.025486        -2.615798
 H        -2.583657         1.334317        -1.594054
 H        -0.425721         0.161186        -3.195887
 H         1.339566         1.402133        -1.841055
 H         0.047966         2.451619        -1.525376
 H         0.428364         1.705436         0.728640
 H         1.203956        -0.613608         1.248395
