19
Iteration:  4556
 C        -2.177737        -1.715034        -1.032541
 C        -1.394477        -0.418070        -1.058821
 C        -1.853038         0.855245        -1.641546
 C        -0.589795         0.059650        -2.219058
 C         0.732467         0.534267        -1.682697
 C         0.343729         0.698419        -0.259348
 O        -0.625383        -0.324523         0.110871
 C         1.596700         0.460885         0.647052
 O         2.425501         1.304021         0.737702
 H        -3.239590        -1.654433        -0.628473
 H        -2.109632        -2.409233        -1.950508
 H        -1.776550        -2.325488        -0.204537
 H        -2.762466         0.714836        -2.268192
 H        -1.736402         1.852361        -1.170985
 H        -0.690446        -0.415033        -3.216757
 H         1.525118        -0.236255        -1.736826
 H         1.231075         1.395305        -2.135267
 H         0.119514         1.711470        -0.142638
 H         1.750587        -0.509661         1.046003
