19
Iteration:   385charge 0 multiplicity 1
 C        -1.444121        -1.813578        -0.749248
 C        -1.359257        -0.346784        -0.918334
 C        -2.100843         0.429056        -1.923776
 C        -0.606329         0.216324        -2.101711
 C         0.290910         1.337177        -1.452475
 C         0.310310         1.013595         0.000951
 O        -0.947483         0.369056         0.273852
 C         1.555628         0.104187         0.395804
 O         2.716992         0.178549         0.123369
 H        -2.079837        -1.997181         0.078121
 H        -1.833416        -2.313906        -1.665312
 H        -0.455718        -2.149789        -0.675884
 H        -2.731308        -0.269962        -2.568604
 H        -2.609328         1.464099        -1.673386
 H        -0.277856        -0.272066        -3.004688
 H         1.451445         1.263386        -1.833396
 H        -0.002841         2.380716        -1.737095
 H         0.361831         1.923747         0.651018
 H         1.111756        -0.585972         1.249274
