19
Iteration:  1624charge 0 multiplicity 1
 C        -1.470798        -1.844884        -0.741762
 C        -1.324754        -0.413312        -0.978671
 C        -2.064568         0.410380        -1.948120
 C        -0.625833         0.323500        -2.134836
 C         0.290179         1.361461        -1.469790
 C         0.335086         0.978813         0.041004
 O        -0.932420         0.322382         0.273242
 C         1.584298         0.109660         0.481768
 O         2.657203         0.230480         0.075894
 H        -2.191760        -1.964162         0.012662
 H        -1.939780        -2.387431        -1.575532
 H        -0.486212        -2.219132        -0.298753
 H        -2.697859        -0.230096        -2.559591
 H        -2.521842         1.353741        -1.732459
 H        -0.170914        -0.360215        -2.840287
 H         1.281410         1.505538        -2.029127
 H        -0.228557         2.385474        -1.390689
 H         0.539337         1.995613         0.664119
 H         1.139594        -0.548623         1.352251
