19
Iteration:  1561charge 0 multiplicity 1
 C        -1.468131        -1.866484        -0.790533
 C        -1.273894        -0.402844        -0.837658
 C        -2.056512         0.453034        -1.819959
 C        -0.621051         0.257701        -2.098360
 C         0.422165         1.294378        -1.551380
 C         0.315256         1.042295        -0.024482
 O        -0.892426         0.306180         0.265098
 C         1.405648         0.129840         0.385639
 O         2.603090         0.329508         0.124292
 H        -2.623077        -2.092211        -0.507105
 H        -1.449565        -2.305075        -1.801902
 H        -0.702775        -2.511468        -0.213452
 H        -2.742495         0.022306        -2.540934
 H        -2.286801         1.409308        -1.388204
 H        -0.281037        -0.374524        -2.877195
 H         1.461025         0.980999        -1.748332
 H        -0.024444         2.260186        -1.760516
 H         0.306830         1.851440         0.611447
 H         1.291407        -0.814076         1.026881
