19
Iteration:  1899charge 0 multiplicity 1
 C        -1.593122        -1.901535        -0.722700
 C        -1.258020        -0.423189        -0.981493
 C        -2.116629         0.387139        -2.021459
 C        -0.560625         0.318817        -2.146384
 C         0.204176         1.408740        -1.426945
 C         0.370334         1.031585         0.014309
 O        -0.875230         0.289089         0.275539
 C         1.533625         0.183718         0.557666
 O         2.756032         0.195992         0.075474
 H        -2.484472        -1.945869        -0.157441
 H        -1.600029        -2.616764        -1.583076
 H        -0.757548        -2.260326         0.126271
 H        -2.772501        -0.019125        -2.868370
 H        -2.516570         1.377708        -1.714538
 H        -0.426917        -0.353202        -3.003118
 H         1.244873         1.522448        -1.909088
 H        -0.256816         2.388140        -1.688889
 H         0.340144         1.909494         0.662937
 H         1.191101        -0.345056         1.429273
