19
Iteration:   171
 C        -1.611855        -1.920057        -0.935815
 C        -1.338908        -0.428475        -0.977970
 C        -2.212280         0.580811        -1.816943
 C        -0.682690         0.294030        -2.106896
 C         0.434203         1.118580        -1.495649
 C         0.350620         0.910736         0.019269
 O        -0.854233         0.213359         0.259315
 C         1.622466         0.422632         0.676072
 O         2.657816         0.267696         0.040003
 H        -2.137870        -2.247659         0.097677
 H        -2.059175        -2.215872        -1.929334
 H        -0.581342        -2.508849        -0.883713
 H        -2.808421         0.354307        -2.699346
 H        -2.288295         1.637618        -1.413883
 H        -0.504212        -0.368484        -2.927099
 H         1.442815         0.634756        -1.694408
 H         0.430735         2.284204        -1.809757
 H         0.177943         1.938698         0.483820
 H         1.731481         0.534563         1.829172
