19
Iteration:  2661
 C        -1.512453        -1.908936        -0.889129
 C        -1.363196        -0.389930        -0.951132
 C        -2.211088         0.551208        -1.801295
 C        -0.728916         0.221550        -2.106494
 C         0.359948         1.203154        -1.645963
 C         0.405799         1.012529        -0.099352
 O        -0.857876         0.280763         0.298650
 C         1.523862         0.159825         0.475337
 O         2.797961         0.365703         0.330950
 H        -2.545369        -2.098454        -0.446559
 H        -1.447357        -2.340224        -1.809378
 H        -0.831970        -2.268250        -0.095147
 H        -2.957065        -0.057580        -2.363826
 H        -2.480907         1.525459        -1.351684
 H        -0.455674        -0.390201        -3.018663
 H         1.366375         1.001457        -2.139318
 H         0.246466         2.336814        -2.093317
 H         0.237333         1.852864         0.452544
 H         1.148914        -0.608745         1.205049
