19
Iteration:   670
 C        -1.381840        -1.750342        -0.653927
 C        -1.370495        -0.327119        -1.009710
 C        -2.092562         0.575853        -1.966423
 C        -0.585768         0.221913        -2.101272
 C         0.354310         1.222165        -1.417478
 C         0.249452         0.923822         0.101739
 O        -0.916567         0.267554         0.259915
 C         1.542699         0.122958         0.490298
 O         2.591949         0.238666        -0.049198
 H        -2.080081        -1.779930         0.255029
 H        -1.643632        -2.483912        -1.510115
 H        -0.252356        -2.020366        -0.405754
 H        -2.529076         0.061410        -2.833398
 H        -2.569067         1.535056        -1.782193
 H        -0.422391        -0.401362        -2.956331
 H         1.365805         1.185915        -1.710819
 H         0.172754         2.194727        -1.649920
 H         0.164644         1.809930         0.718312
 H         1.394088        -0.588632         1.367612
