19
Iteration:  3690
 C        -1.971394        -1.829600        -1.069302
 C        -1.391217        -0.364995        -1.042459
 C        -1.961504         0.796802        -1.735013
 C        -0.648309         0.097156        -2.197282
 C         0.758395         0.529898        -1.722205
 C         0.370866         0.736956        -0.148752
 O        -0.734184        -0.113184         0.201252
 C         1.526416         0.438263         0.699127
 O         2.530292         1.150129         0.666506
 H        -3.074138        -1.699019        -1.177955
 H        -1.493307        -2.345130        -1.837510
 H        -1.843427        -2.416489        -0.092654
 H        -2.737074         0.557019        -2.493122
 H        -1.840755         1.758540        -1.216174
 H        -0.758734        -0.321529        -3.174886
 H         1.379238        -0.188019        -2.111938
 H         1.110156         1.463326        -2.080889
 H        -0.066872         1.796478        -0.145932
 H         1.397058        -0.548553         1.248075
