19
Iteration:  4455charge 0 multiplicity 1
 C        -1.993097        -1.794605        -0.787301
 C        -1.432214        -0.435457        -1.093679
 C        -1.919924         0.808359        -1.778677
 C        -0.633256        -0.017643        -2.335343
 C         0.636424         0.696833        -1.883045
 C         0.361511         0.837189        -0.314232
 O        -0.661498        -0.098871         0.106707
 C         1.617333         0.340572         0.556600
 O         2.450164         1.082306         1.065764
 H        -3.027656        -1.732034        -0.898913
 H        -1.658493        -2.724343        -1.302134
 H        -1.718190        -2.128908         0.325248
 H        -2.857907         0.760958        -2.329800
 H        -1.618204         1.758982        -1.305724
 H        -0.708579        -0.401219        -3.355324
 H         1.562434         0.230822        -2.061516
 H         0.625263         1.739929        -2.382913
 H         0.233393         1.822110        -0.144997
 H         1.912030        -0.786936         0.538556
