19
Iteration:   105
 C        -1.822071        -1.825703        -0.900669
 C        -1.277162        -0.479262        -0.996307
 C        -2.090949         0.533868        -1.590194
 C        -0.700566         0.257690        -2.260350
 C         0.416563         1.154435        -1.683837
 C         0.265709         1.039147        -0.112457
 O        -0.673331         0.047643         0.224365
 C         1.587172         0.431895         0.646284
 O         2.733243         0.342943         0.273224
 H        -2.708058        -2.011027        -0.176357
 H        -2.088527        -2.314158        -1.897536
 H        -1.053291        -2.596836        -0.526357
 H        -2.968405         0.415559        -2.285733
 H        -2.171656         1.498988        -1.012269
 H        -0.615942        -0.257117        -3.214178
 H         1.507022         0.843344        -1.960556
 H         0.277527         2.382340        -2.006473
 H         0.000789         2.024246         0.431671
 H         1.334352        -0.100532         1.647057
