19
Iteration:  1720
 C        -1.312694        -1.868174        -0.805655
 C        -1.314266        -0.378592        -0.930279
 C        -2.102262         0.493618        -1.952580
 C        -0.596816         0.308595        -2.055191
 C         0.368365         1.234637        -1.443751
 C         0.237356         1.031552         0.073596
 O        -0.955493         0.322981         0.311332
 C         1.549563         0.239534         0.520357
 O         2.536386         0.135559        -0.066869
 H        -2.193879        -2.192048        -0.204145
 H        -1.478222        -2.412618        -1.775565
 H        -0.421476        -1.973692        -0.183420
 H        -2.665435        -0.083661        -2.694645
 H        -2.618718         1.364824        -1.616091
 H        -0.320923        -0.222662        -2.978208
 H         1.275518         0.774132        -1.694432
 H         0.356601         2.238138        -1.781362
 H         0.179031         1.858180         0.646670
 H         1.636144         0.062092         1.675612
