19
Iteration:  1776charge 0 multiplicity 1
 C        -1.431781        -1.882113        -0.739845
 C        -1.164149        -0.446775        -0.880605
 C        -2.151915         0.392756        -1.900510
 C        -0.605420         0.309543        -2.118320
 C         0.290959         1.499658        -1.556438
 C         0.303000         1.121041        -0.046410
 O        -0.832436         0.251462         0.246840
 C         1.498155         0.254354         0.466474
 O         2.580041         0.030346         0.139589
 H        -2.399403        -1.903929        -0.191792
 H        -1.471976        -2.396070        -1.728420
 H        -0.653998        -2.461880        -0.113849
 H        -2.937069        -0.013201        -2.516989
 H        -2.518520         1.302235        -1.414350
 H        -0.111337        -0.178402        -2.951042
 H         1.251467         1.509476        -2.060069
 H        -0.067373         2.500426        -1.469259
 H         0.218319         1.924071         0.545815
 H         0.869445        -0.296515         1.211445
