19
Iteration:   498charge 0 multiplicity 1
 C        -1.584716        -1.845422        -0.841846
 C        -1.261423        -0.381821        -0.908878
 C        -2.064560         0.501922        -1.882690
 C        -0.507776         0.177554        -2.065316
 C         0.233179         1.323180        -1.548366
 C         0.246910         1.065058         0.013860
 O        -0.842286         0.249999         0.351679
 C         1.537959         0.273491         0.475298
 O         2.663354         0.152652         0.056944
 H        -2.254912        -2.041113        -0.054987
 H        -2.059587        -2.122504        -1.691008
 H        -0.667046        -2.427718        -0.741702
 H        -2.741736        -0.038497        -2.554100
 H        -2.250088         1.534757        -1.575688
 H         0.009136        -0.517738        -2.735300
 H         1.271599         1.195004        -2.063622
 H        -0.249605         2.307172        -1.863892
 H         0.321640         2.004326         0.604688
 H         1.293674        -0.222938         1.423692
