19
Iteration:  3053
 C        -1.327168        -1.904060        -0.749974
 C        -1.241679        -0.345635        -0.923762
 C        -2.110324         0.376727        -1.870048
 C        -0.546133         0.308987        -2.138184
 C         0.335342         1.415923        -1.510067
 C         0.289701         1.077498         0.029052
 O        -0.934386         0.378606         0.289735
 C         1.482697         0.215269         0.525712
 O         2.536370         0.002823        -0.018476
 H        -2.384681        -2.208417        -0.900980
 H        -0.732437        -2.393451        -1.377948
 H        -1.087649        -2.184101         0.262885
 H        -2.869532        -0.215144        -2.478530
 H        -2.471262         1.400257        -1.623075
 H        -0.260183        -0.210139        -3.084496
 H         1.400802         1.428515        -1.797386
 H        -0.090066         2.452674        -1.530809
 H         0.190197         2.028338         0.692774
 H         1.084867        -0.457306         1.328211
