19
Iteration:  2882
 C        -1.388974        -1.881723        -0.872780
 C        -1.274580        -0.320223        -0.871407
 C        -2.078488         0.409212        -1.793008
 C        -0.585780         0.226544        -2.100631
 C         0.428636         1.258179        -1.553925
 C         0.292652         1.091620        -0.026034
 O        -0.945862         0.411103         0.281402
 C         1.431253         0.106752         0.575681
 O         2.533614         0.222637         0.065019
 H        -1.901704        -2.240710         0.042904
 H        -1.705287        -2.346622        -1.898725
 H        -0.374688        -2.212317        -0.715636
 H        -2.752868        -0.104959        -2.477390
 H        -2.421170         1.410563        -1.592100
 H        -0.247852        -0.477038        -2.864329
 H         1.419833         0.924198        -1.873155
 H         0.256908         2.306700        -1.817927
 H         0.281119         2.206503         0.395116
 H         1.139440        -0.799290         1.156392
