19
Iteration:  1364
 C        -1.711260        -1.828972        -0.853137
 C        -1.234063        -0.427858        -0.945004
 C        -2.065642         0.485372        -1.783387
 C        -0.586139         0.168156        -2.134799
 C         0.342083         1.294089        -1.582235
 C         0.325704         1.048364        -0.051632
 O        -0.793797         0.145419         0.251207
 C         1.488328         0.258241         0.561069
 O         2.673782         0.369897         0.168028
 H        -2.459535        -1.861478         0.010467
 H        -2.107396        -2.450531        -1.734875
 H        -0.816567        -2.498177        -0.532876
 H        -2.853025         0.133198        -2.400760
 H        -2.167002         1.519978        -1.579735
 H        -0.321620        -0.415370        -3.035598
 H         1.433096         1.201316        -1.914685
 H        -0.021044         2.284501        -1.974397
 H         0.209849         1.865110         0.716876
 H         1.324477        -0.507105         1.396837
