19
Iteration:  2988
 C        -1.436116        -1.918595        -0.831634
 C        -1.232862        -0.403176        -0.909899
 C        -2.020390         0.373113        -1.909232
 C        -0.515248         0.253256        -1.976204
 C         0.355265         1.423831        -1.443495
 C         0.273102         1.080809         0.051898
 O        -0.911323         0.394728         0.301512
 C         1.458425         0.284701         0.490903
 O         2.511866         0.053996        -0.083214
 H        -2.543024        -2.070334        -0.636119
 H        -1.295506        -2.488741        -1.679357
 H        -0.850440        -2.263667        -0.006360
 H        -2.641520        -0.313439        -2.551256
 H        -2.410828         1.361534        -1.581424
 H        -0.153107        -0.347953        -2.816907
 H         1.339030         1.325232        -1.889547
 H        -0.045200         2.404804        -1.750815
 H         0.264746         1.952133         0.627381
 H         1.141879        -0.381562         1.309615
