19
Iteration:   507
 C        -1.606882        -1.914308        -0.856710
 C        -1.308997        -0.366916        -0.850973
 C        -1.996861         0.425717        -1.891424
 C        -0.575821         0.206923        -2.059083
 C         0.298633         1.300008        -1.500678
 C         0.314179         1.113128        -0.024167
 O        -0.796106         0.275328         0.341033
 C         1.500363         0.304052         0.512017
 O         2.620431         0.165840         0.020575
 H        -2.296108        -2.117320        -0.077406
 H        -2.117348        -2.155370        -1.788500
 H        -0.711647        -2.526587        -0.900509
 H        -2.811636        -0.017813        -2.570648
 H        -2.201751         1.528481        -1.598577
 H        -0.228191        -0.483805        -2.833085
 H         1.444995         1.369685        -1.838489
 H         0.024377         2.353311        -1.681435
 H         0.155655         2.068389         0.543583
 H         1.064637        -0.419116         1.203690
