19
Iteration:  4040
 C        -1.943023        -1.827840        -0.847169
 C        -1.439833        -0.411063        -1.016671
 C        -1.974608         0.821380        -1.891173
 C        -0.701493         0.085135        -2.253590
 C         0.682466         0.598444        -1.665389
 C         0.389874         0.886104        -0.150545
 O        -0.642430        -0.097380         0.070511
 C         1.523472         0.404729         0.713582
 O         2.537341         1.008673         0.706946
 H        -1.843768        -2.197582        -1.850996
 H        -1.319833        -2.373047        -0.130729
 H        -3.107538        -2.077906        -0.712504
 H        -2.760481         0.810506        -2.647013
 H        -1.902005         1.764492        -1.399334
 H        -0.734783        -0.443803        -3.171689
 H         1.455951        -0.172785        -1.795863
 H         1.100241         1.407506        -2.301133
 H         0.095160         2.067673        -0.130011
 H         1.265367        -0.550034         1.239294
