19
Iteration:  3647charge 0 multiplicity 1
 C        -2.070412        -1.825710        -0.968255
 C        -1.377417        -0.486230        -1.039114
 C        -1.964680         0.694948        -1.837918
 C        -0.628539         0.192234        -2.279128
 C         0.617955         0.783969        -1.788115
 C         0.315653         0.821687        -0.207352
 O        -0.639650        -0.263298         0.136946
 C         1.505140         0.666057         0.825663
 O         2.727802         0.888950         0.713352
 H        -3.001458        -1.726130        -1.618110
 H        -1.470706        -2.808913        -1.125093
 H        -2.522271        -1.732156         0.128770
 H        -2.715276         0.249013        -2.537303
 H        -2.200757         1.700513        -1.377324
 H        -0.573252        -0.492031        -3.112945
 H         1.578978         0.376247        -1.907855
 H         0.719501         1.804955        -2.125362
 H        -0.101203         1.898141         0.078744
 H         1.125544         0.043003         1.724087
