19
Iteration:  2855
 C        -1.437643        -1.898979        -0.813488
 C        -1.329050        -0.388609        -0.881517
 C        -2.104904         0.464277        -1.900685
 C        -0.654857         0.225412        -2.115174
 C         0.296381         1.364582        -1.546713
 C         0.318517         1.029192        -0.111368
 O        -0.891207         0.334415         0.255793
 C         1.513432         0.227154         0.511760
 O         2.678663         0.141845         0.208605
 H        -2.296733        -2.318037        -0.208433
 H        -1.227185        -2.403948        -1.710800
 H        -0.504491        -2.109118        -0.139181
 H        -2.777234         0.145517        -2.700744
 H        -2.416379         1.382654        -1.372017
 H        -0.346579        -0.404440        -2.971991
 H         1.278222         1.284796        -2.052478
 H         0.028879         2.415679        -1.677169
 H         0.309542         1.933753         0.486837
 H         1.131130        -0.340969         1.391354
