19
Iteration:   667
 C        -1.342361        -1.730301        -0.632869
 C        -1.374019        -0.339394        -1.021757
 C        -2.105971         0.588141        -1.955899
 C        -0.575725         0.221160        -2.123930
 C         0.333567         1.201005        -1.444817
 C         0.258705         0.937003         0.110438
 O        -0.915373         0.251410         0.261080
 C         1.513777         0.133620         0.516397
 O         2.610567         0.233966        -0.051527
 H        -2.143005        -1.758586         0.167202
 H        -1.716700        -2.428566        -1.533070
 H        -0.335145        -2.098953        -0.413624
 H        -2.544316         0.032976        -2.857183
 H        -2.546044         1.592348        -1.744120
 H        -0.441307        -0.449880        -2.958539
 H         1.339574         1.193806        -1.784503
 H         0.197797         2.378399        -1.671393
 H         0.189967         1.766410         0.859284
 H         1.378601        -0.646202         1.395192
