19
Iteration:   247
 C        -1.570199        -1.851195        -0.664439
 C        -1.305354        -0.450900        -1.004576
 C        -2.086643         0.553571        -1.886588
 C        -0.541147         0.288248        -2.076943
 C         0.364784         1.376055        -1.549907
 C         0.296567         0.950842        -0.005727
 O        -0.835868         0.142093         0.235910
 C         1.488585         0.218579         0.497119
 O         2.637722         0.258711         0.064646
 H        -2.619134        -1.871234        -0.068549
 H        -1.836111        -2.569037        -1.492500
 H        -0.634517        -2.394782        -0.163239
 H        -2.806171         0.426799        -2.747745
 H        -2.308005         1.505634        -1.320090
 H        -0.300559        -0.150876        -3.029503
 H         1.371739         1.264181        -1.806707
 H         0.131010         2.407814        -1.835459
 H         0.081948         1.763075         0.709859
 H         1.337581        -0.338788         1.420488
