19
Iteration:   503charge 0 multiplicity 1
 C        -1.588906        -1.891195        -0.843412
 C        -1.289264        -0.363721        -0.870252
 C        -2.031904         0.459177        -1.891104
 C        -0.536301         0.201343        -2.062734
 C         0.263114         1.298006        -1.527605
 C         0.268612         1.089435        -0.004585
 O        -0.807359         0.268925         0.349383
 C         1.536457         0.301557         0.482818
 O         2.632985         0.157284         0.040967
 H        -2.395551        -2.029869        -0.028099
 H        -2.146452        -2.202819        -1.855280
 H        -0.644066        -2.482959        -0.924737
 H        -2.741675        -0.019837        -2.555457
 H        -2.164047         1.495436        -1.570083
 H        -0.108202        -0.512784        -2.765045
 H         1.232462         1.328451        -1.919681
 H        -0.027219         2.315924        -1.742816
 H         0.245840         2.026665         0.563048
 H         1.084690        -0.390724         1.346959
