19
Iteration:  2689
 C        -1.606847        -1.890645        -0.726463
 C        -1.282892        -0.420970        -0.979400
 C        -2.155449         0.510119        -1.819311
 C        -0.682089         0.228125        -2.199032
 C         0.298789         1.312742        -1.604048
 C         0.388327         1.019026        -0.122060
 O        -0.717127         0.184946         0.239040
 C         1.553848         0.214946         0.495734
 O         2.686656         0.295887         0.334331
 H        -2.539608        -1.806115        -0.201743
 H        -1.959982        -2.277274        -1.765411
 H        -0.733957        -2.455372        -0.211059
 H        -2.838599        -0.002189        -2.459649
 H        -2.483352         1.502372        -1.513921
 H        -0.364873        -0.132515        -3.164313
 H         1.216622         1.515391        -2.110360
 H        -0.112131         2.246734        -1.795077
 H         0.098902         2.001430         0.485488
 H         1.056926        -0.487103         1.212240
