19
Iteration:  2652
 C        -1.482828        -1.953924        -0.856772
 C        -1.369158        -0.365446        -0.919900
 C        -2.265735         0.557156        -1.804773
 C        -0.676253         0.265368        -2.122361
 C         0.407471         1.121069        -1.626789
 C         0.387027         0.950047        -0.084720
 O        -0.886103         0.338301         0.290813
 C         1.593068         0.159165         0.467077
 O         2.735845         0.406028         0.302818
 H        -2.509927        -2.174744        -0.552719
 H        -1.403183        -2.361790        -1.833687
 H        -0.901602        -2.542475        -0.269947
 H        -2.981799         0.171399        -2.591561
 H        -2.496948         1.566584        -1.411387
 H        -0.676732        -0.198875        -3.114051
 H         1.413431         0.778927        -1.990320
 H         0.156138         2.216384        -1.706455
 H         0.453709         1.947486         0.362821
 H         1.236130        -0.621329         1.186323
