19
Iteration:   975charge 0 multiplicity 1
 C        -1.658007        -1.824073        -0.761398
 C        -1.370718        -0.430787        -1.034795
 C        -2.146523         0.424145        -1.988161
 C        -0.603558         0.325340        -2.154488
 C         0.363456         1.303161        -1.487774
 C         0.337395         0.971079         0.014214
 O        -0.845495         0.141748         0.253750
 C         1.669835         0.306683         0.623950
 O         2.719483         0.262231         0.118256
 H        -2.351000        -1.773038         0.167493
 H        -2.244750        -2.247331        -1.579139
 H        -0.790711        -2.395988        -0.462993
 H        -2.777083        -0.206473        -2.575443
 H        -2.607105         1.322723        -1.656701
 H        -0.132671        -0.308086        -2.902074
 H         1.294447         1.252239        -1.982137
 H         0.008430         2.426626        -1.579483
 H         0.086413         1.983762         0.522929
 H         1.438765         0.052981         1.740471
