19
Iteration:  1705charge 0 multiplicity 1
 C        -1.338181        -1.826737        -0.730453
 C        -1.344850        -0.368845        -0.945093
 C        -2.115797         0.463845        -1.959691
 C        -0.595866         0.332928        -2.125178
 C         0.460021         1.236861        -1.450610
 C         0.248507         0.999647         0.087759
 O        -1.025116         0.253677         0.312599
 C         1.562368         0.328284         0.628003
 O         2.560584         0.133381        -0.145860
 H        -2.132569        -2.270745         0.122766
 H        -1.539860        -2.361336        -1.707541
 H        -0.364324        -2.298838        -0.577998
 H        -2.705499        -0.050051        -2.729507
 H        -2.515894         1.449664        -1.602428
 H        -0.152672        -0.282080        -2.960188
 H         1.519482         0.968048        -1.683957
 H         0.248337         2.336489        -1.597411
 H         0.253888         2.035954         0.634614
 H         1.299290        -0.228706         1.559195
