19
Iteration:   584
 C        -1.485663        -1.830577        -0.757943
 C        -1.313649        -0.359343        -0.923316
 C        -2.133453         0.495344        -1.916234
 C        -0.691105         0.264570        -2.062960
 C         0.353174         1.331522        -1.551221
 C         0.399733         1.043862        -0.093383
 O        -0.855873         0.190074         0.269193
 C         1.505574         0.273377         0.546692
 O         2.652443         0.117467         0.103964
 H        -2.291570        -2.206487        -0.148028
 H        -1.529803        -2.182085        -1.761098
 H        -0.578613        -2.259930        -0.284138
 H        -2.911091         0.055847        -2.613976
 H        -2.464966         1.461542        -1.507477
 H        -0.379693        -0.366752        -2.891707
 H         1.347114         1.186661        -2.114645
 H         0.001665         2.345874        -1.529090
 H         0.262804         1.944640         0.544685
 H         1.188607        -0.047558         1.621626
