19
Iteration:  1654
 C        -1.540119        -1.911709        -0.792890
 C        -1.223437        -0.460849        -0.963417
 C        -2.021214         0.382658        -1.871668
 C        -0.533297         0.273187        -2.074511
 C         0.276247         1.541051        -1.560402
 C         0.281978         1.158244         0.003532
 O        -0.834000         0.267741         0.326907
 C         1.415627         0.167700         0.451637
 O         2.652916         0.126610         0.083970
 H        -2.057339        -1.980203         0.128259
 H        -2.289684        -2.354342        -1.471736
 H        -0.668262        -2.536116        -0.720983
 H        -2.744518        -0.237790        -2.388269
 H        -2.337792         1.370526        -1.520949
 H        -0.087340        -0.410189        -2.855033
 H         1.236127         1.467860        -1.954460
 H        -0.233174         2.439019        -1.758307
 H         0.275225         2.053989         0.647434
 H         0.944181        -0.443027         1.199528
