19
Iteration:  2597
 C        -1.615327        -1.895723        -0.756793
 C        -1.411317        -0.354689        -0.931172
 C        -2.030042         0.581002        -1.922034
 C        -0.635328         0.270469        -2.101564
 C         0.357651         1.174372        -1.547326
 C         0.323085         0.947859         0.008187
 O        -0.836467         0.129911         0.226812
 C         1.568262         0.149481         0.463206
 O         2.696376         0.495836         0.197634
 H        -2.225831        -2.014617         0.179882
 H        -2.181412        -2.423223        -1.499990
 H        -0.713628        -2.385915        -0.665956
 H        -2.853920         0.217481        -2.546310
 H        -2.334957         1.544192        -1.462754
 H        -0.390388        -0.248388        -3.030426
 H         1.322903         0.918908        -2.025587
 H         0.349514         2.273635        -1.743868
 H         0.290708         1.908224         0.608317
 H         1.301053        -0.786774         1.035830
