19
Iteration:  4649charge 0 multiplicity 1
 C        -2.162047        -1.747391        -0.971915
 C        -1.363808        -0.485039        -1.051951
 C        -1.907272         0.656214        -1.906615
 C        -0.549425         0.056145        -2.213167
 C         0.693470         0.691055        -1.643671
 C         0.286487         0.847596        -0.198866
 O        -0.603288        -0.162175         0.205238
 C         1.480274         0.567483         0.745406
 O         2.588298         1.037924         0.666401
 H        -1.868636        -2.321885        -0.071994
 H        -3.154947        -1.474130        -1.103626
 H        -1.916029        -2.316113        -1.943423
 H        -2.748788         0.373982        -2.533490
 H        -1.999209         1.610217        -1.456168
 H        -0.416560        -0.489353        -3.091793
 H         1.576761         0.056883        -1.816341
 H         1.033744         1.665428        -2.075342
 H        -0.289211         1.739498        -0.096528
 H         1.306171        -0.392930         1.340739
