19
Iteration:   583charge 0 multiplicity 1
 C        -1.482078        -1.832694        -0.754282
 C        -1.323183        -0.358971        -0.931960
 C        -2.124862         0.498198        -1.920568
 C        -0.704182         0.260369        -2.054285
 C         0.360174         1.337663        -1.545765
 C         0.393270         1.039527        -0.098399
 O        -0.854499         0.186748         0.265881
 C         1.516375         0.272944         0.554671
 O         2.647891         0.119603         0.100043
 H        -2.306283        -2.186654        -0.099372
 H        -1.514142        -2.223049        -1.800844
 H        -0.558848        -2.255230        -0.261826
 H        -2.922723         0.094422        -2.642635
 H        -2.472624         1.476373        -1.497091
 H        -0.365427        -0.384077        -2.860663
 H         1.329686         1.211493        -2.108443
 H         0.035761         2.337008        -1.526868
 H         0.265981         1.945705         0.522000
 H         1.192743        -0.044867         1.614026
