19
Iteration:   876charge 0 multiplicity 1
 C        -1.539051        -1.854459        -0.728812
 C        -1.280063        -0.406075        -0.982437
 C        -2.237517         0.357716        -1.941235
 C        -0.635418         0.430380        -2.116277
 C         0.390795         1.306664        -1.510947
 C         0.268127         1.040515        -0.010436
 O        -0.876143         0.246122         0.162752
 C         1.608423         0.287779         0.615002
 O         2.764649         0.099721         0.128777
 H        -2.401036        -1.927572        -0.031247
 H        -1.946239        -2.243665        -1.632929
 H        -0.746614        -2.407642        -0.415065
 H        -2.751096        -0.308118        -2.600723
 H        -2.846244         1.110740        -1.518097
 H        -0.416365        -0.111492        -3.081371
 H         1.391269         1.337817        -1.783199
 H         0.251876         2.489471        -1.640545
 H        -0.027051         2.011143         0.648927
 H         1.383412         0.043197         1.674428
