19
Iteration:  4146
 C        -2.076661        -1.830119        -0.984419
 C        -1.394206        -0.474423        -1.032759
 C        -1.823974         0.703612        -1.866109
 C        -0.494501         0.029164        -2.220042
 C         0.777855         0.701902        -1.566271
 C         0.279874         0.900956        -0.064161
 O        -0.692614        -0.125659         0.219706
 C         1.383159         0.718300         0.852816
 O         2.522268         0.812856         0.336582
 H        -2.613198        -1.944934        -1.949695
 H        -1.447805        -2.628980        -0.985644
 H        -2.687720        -1.879923        -0.164354
 H        -2.680209         0.681440        -2.588422
 H        -1.801899         1.646141        -1.284934
 H        -0.371118        -0.300441        -3.231767
 H         1.633380         0.030335        -1.561953
 H         0.927888         1.609131        -2.077949
 H        -0.210250         1.966109        -0.129273
 H         1.168412         0.319430         1.843894
