19
Iteration:  2559charge 0 multiplicity 1
 C        -1.848938        -1.825986        -0.860174
 C        -1.261089        -0.488454        -0.953400
 C        -2.009123         0.439034        -1.832299
 C        -0.593885         0.233043        -2.147972
 C         0.238710         1.300816        -1.545953
 C         0.382640         0.997198        -0.043698
 O        -0.784079         0.177787         0.266406
 C         1.617142         0.219049         0.552327
 O         2.749430         0.432057         0.215798
 H        -2.174534        -1.946215         0.118484
 H        -2.734508        -1.955688        -1.594423
 H        -1.184224        -2.748725        -1.112367
 H        -2.709187        -0.190339        -2.406362
 H        -2.406879         1.426159        -1.552573
 H        -0.072097        -0.130970        -3.050399
 H         1.244142         1.158675        -1.964447
 H        -0.341426         2.204985        -1.883844
 H         0.309254         1.869052         0.529173
 H         1.335457        -0.453961         1.369507
