19
Iteration:  1155charge 0 multiplicity 1
 C        -1.668755        -1.874416        -0.765877
 C        -1.277451        -0.405042        -0.919849
 C        -1.979621         0.479893        -1.801514
 C        -0.585948         0.201455        -2.090018
 C         0.317644         1.302643        -1.587519
 C         0.331752         0.937915        -0.039455
 O        -0.852343         0.271154         0.217991
 C         1.500446         0.069382         0.342645
 O         2.683747         0.470915         0.284244
 H        -2.187401        -1.971337         0.133322
 H        -2.407183        -2.245218        -1.529940
 H        -0.777805        -2.505172        -0.839815
 H        -2.812641         0.108904        -2.366655
 H        -2.176032         1.470875        -1.350498
 H        -0.386106        -0.364944        -2.990454
 H         1.423102         1.283126        -2.033760
 H        -0.175838         2.356056        -1.838575
 H         0.362142         1.857760         0.552959
 H         1.188097        -0.915148         0.760685
