19
Iteration:  1687
 C        -1.417425        -1.895026        -0.759777
 C        -1.292823        -0.398407        -1.007772
 C        -2.052785         0.466024        -1.899544
 C        -0.565767         0.255146        -2.038204
 C         0.364424         1.361284        -1.451061
 C         0.303782         1.030126         0.042916
 O        -0.901098         0.305639         0.255291
 C         1.444060         0.223394         0.586052
 O         2.531302         0.170088        -0.070098
 H        -1.902210        -2.007706         0.169892
 H        -1.915243        -2.449018        -1.579514
 H        -0.435796        -2.395138        -0.687030
 H        -2.739177        -0.061756        -2.561273
 H        -2.368445         1.414228        -1.504065
 H        -0.292945        -0.366050        -2.915668
 H         1.322566         1.209070        -1.844389
 H         0.139633         2.329309        -1.803178
 H         0.162525         1.855754         0.659119
 H         1.540538        -0.166828         1.613541
