19
Iteration:  2176
 C        -1.538076        -1.919475        -0.718433
 C        -1.186496        -0.404471        -0.918176
 C        -2.070939         0.443356        -1.834619
 C        -0.552162         0.258167        -2.130640
 C         0.300639         1.426941        -1.626967
 C         0.306172         0.994397        -0.028179
 O        -0.867405         0.225738         0.271532
 C         1.476578         0.136218         0.384328
 O         2.614803         0.279513         0.210920
 H        -2.079322        -1.807364         0.305929
 H        -2.308402        -2.001795        -1.543478
 H        -0.756097        -2.651507        -0.854639
 H        -2.801036         0.131561        -2.569118
 H        -2.289336         1.477888        -1.504525
 H        -0.073519        -0.208288        -3.040377
 H         1.344836         1.521361        -1.895331
 H        -0.093528         2.388245        -1.497005
 H         0.384938         1.990772         0.566061
 H         0.891629        -0.667783         0.976022
