19
Iteration:  2091
 C        -1.468955        -1.916606        -0.831364
 C        -1.326991        -0.422005        -0.909429
 C        -2.044514         0.562982        -1.877931
 C        -0.587929         0.279847        -2.071144
 C         0.452780         1.173487        -1.512033
 C         0.276598         1.034671         0.031105
 O        -0.925026         0.241375         0.272825
 C         1.465098         0.242803         0.542937
 O         2.591129         0.332514        -0.013010
 H        -2.525970        -2.125277        -0.360280
 H        -1.454089        -2.570769        -1.721987
 H        -0.887958        -2.264794        -0.080795
 H        -2.880948         0.151588        -2.451720
 H        -2.404224         1.420928        -1.282818
 H        -0.350168        -0.362922        -2.916258
 H         1.439045         0.930504        -1.843251
 H         0.462680         2.296904        -1.732450
 H         0.236456         1.915661         0.633395
 H         1.513900        -0.547115         1.316309
