19
Iteration:   746charge 0 multiplicity 1
 C        -1.523033        -1.863799        -0.676508
 C        -1.277339        -0.398314        -0.940115
 C        -2.001931         0.494618        -2.004452
 C        -0.546166         0.312308        -2.033474
 C         0.216606         1.421489        -1.516371
 C         0.254745         1.074447        -0.051164
 O        -0.841380         0.242441         0.352387
 C         1.523898         0.090140         0.441275
 O         2.639530         0.134773         0.042689
 H        -2.487953        -2.046849        -0.115775
 H        -1.401521        -2.392343        -1.645986
 H        -0.632546        -2.166065         0.008402
 H        -2.585747        -0.155290        -2.606825
 H        -2.534818         1.422994        -1.808554
 H        -0.163220        -0.150896        -2.947877
 H         1.235436         1.506430        -1.859162
 H        -0.398515         2.450076        -1.699160
 H         0.269966         1.925279         0.596648
 H         1.173274        -0.520513         1.313936
