19
Iteration:  1403charge 0 multiplicity 1
 C        -1.694698        -1.889746        -0.774964
 C        -1.387230        -0.436908        -1.013172
 C        -2.157899         0.464942        -1.877564
 C        -0.656517         0.303416        -2.132629
 C         0.363586         1.348203        -1.574840
 C         0.340956         0.957731        -0.022106
 O        -0.851680         0.110375         0.221735
 C         1.609650         0.309683         0.667768
 O         2.833715         0.323615         0.154357
 H        -2.641003        -1.831774        -0.333568
 H        -1.699694        -2.551561        -1.636823
 H        -0.953636        -2.333461        -0.110053
 H        -2.736249        -0.171805        -2.619629
 H        -2.446329         1.538605        -1.782815
 H        -0.362514        -0.184966        -3.061289
 H         1.272825         1.011849        -2.021558
 H         0.198952         2.419223        -1.700519
 H         0.242082         1.884589         0.447143
 H         1.409017         0.067538         1.720968
