19
Iteration:  3714
 C        -2.066861        -1.848626        -1.060847
 C        -1.492674        -0.363186        -1.081216
 C        -1.933517         0.804558        -1.809073
 C        -0.639062         0.197349        -2.247134
 C         0.677007         0.475722        -1.572224
 C         0.404451         0.719631        -0.110061
 O        -0.736785        -0.176314         0.142083
 C         1.713271         0.412021         0.592579
 O         2.523623         1.279931         0.733286
 H        -3.090997        -1.810671        -0.769085
 H        -1.866990        -2.516967        -1.918634
 H        -1.596373        -2.288097        -0.130973
 H        -2.692676         0.577734        -2.571800
 H        -1.994496         1.704230        -1.215787
 H        -0.593338        -0.446512        -3.109383
 H         1.115715        -0.447616        -1.742849
 H         1.370907         1.201574        -1.992327
 H         0.031098         1.777377         0.147861
 H         1.782378        -0.669189         0.958213
