19
Iteration:   274
 C        -1.591908        -1.867826        -0.797480
 C        -1.293962        -0.409745        -0.964606
 C        -2.115628         0.405552        -1.858486
 C        -0.582137         0.287417        -2.121463
 C         0.369727         1.248342        -1.487162
 C         0.343185         0.956564         0.111485
 O        -0.970339         0.374559         0.275043
 C         1.618126         0.195534         0.556967
 O         2.669562         0.276072        -0.003925
 H        -2.477399        -2.076270        -0.332072
 H        -1.716424        -2.336914        -1.776709
 H        -0.813578        -2.365506        -0.314001
 H        -2.675007         0.020591        -2.687186
 H        -2.526792         1.397559        -1.735721
 H        -0.290530        -0.165971        -3.081397
 H         1.494008         1.108575        -1.840198
 H         0.181168         2.348509        -1.705232
 H         0.188044         1.888308         0.690952
 H         1.482117        -0.531922         1.362545
