19
Iteration:  4848
 C        -1.828173        -1.868717        -0.875818
 C        -1.342688        -0.462656        -1.068099
 C        -1.843490         0.454343        -2.109273
 C        -0.413678        -0.070866        -2.143382
 C         0.627778         0.947358        -1.546178
 C         0.267697         0.946607        -0.133154
 O        -0.969155         0.315324         0.100864
 C         1.397895         0.415024         0.774602
 O         2.562792         0.693974         0.592470
 H        -2.783673        -1.730465        -0.384362
 H        -1.889906        -2.276597        -1.907680
 H        -1.059559        -2.346210        -0.191280
 H        -2.557854        -0.036883        -2.822412
 H        -2.034864         1.522478        -1.849393
 H         0.004311        -0.684378        -2.992558
 H         1.624040         0.580910        -1.585870
 H         0.461222         1.936307        -2.040275
 H         0.209400         2.036539         0.286836
 H         1.143154         0.010785         1.807319
