19
Iteration:   443charge 0 multiplicity 1
 C        -1.496755        -1.852936        -0.712363
 C        -1.269176        -0.407577        -0.932908
 C        -2.132083         0.402232        -1.862264
 C        -0.617444         0.362838        -2.098398
 C         0.512328         1.340909        -1.511274
 C         0.280162         1.026486         0.019731
 O        -0.959322         0.271335         0.236516
 C         1.526354         0.203925         0.483937
 O         2.616043         0.203259         0.023746
 H        -2.392407        -1.919603        -0.165198
 H        -1.647535        -2.425329        -1.545315
 H        -0.863041        -2.323400         0.018949
 H        -2.816194        -0.058730        -2.636912
 H        -2.648502         1.318489        -1.424229
 H        -0.275183        -0.240669        -2.975073
 H         1.492114         0.908489        -1.908020
 H         0.429094         2.420687        -1.751749
 H         0.251112         1.978321         0.577808
 H         1.323715        -0.675661         1.192147
