19
Iteration:    62charge 0 multiplicity 1
 C        -1.831868        -1.852235        -0.944759
 C        -1.505188        -0.344380        -0.978467
 C        -2.162007         0.665273        -1.792118
 C        -0.748120         0.215388        -2.169146
 C         0.470352         0.968621        -1.585743
 C         0.360352         0.904595        -0.040379
 O        -0.645662        -0.096181         0.212749
 C         1.715326         0.484204         0.780290
 O         2.735019         0.517189         0.184934
 H        -2.497905        -2.102729        -0.059895
 H        -2.438206        -2.168696        -1.801301
 H        -0.946872        -2.522210        -0.887681
 H        -3.089860         0.467150        -2.482909
 H        -2.211371         1.758580        -1.561192
 H        -0.614247        -0.447039        -3.021414
 H         1.507426         0.678467        -2.084572
 H         0.474134         2.195163        -1.862048
 H         0.178034         1.944103         0.492140
 H         1.636773         0.440454         1.861518
