19
Iteration:  1932charge 0 multiplicity 1
 C        -1.517050        -1.852305        -0.773151
 C        -1.299566        -0.366962        -0.969230
 C        -2.112584         0.412649        -1.935864
 C        -0.641652         0.245465        -2.102565
 C         0.304797         1.334196        -1.487853
 C         0.312075         0.980847         0.015605
 O        -0.905942         0.307498         0.262690
 C         1.561649         0.165950         0.513865
 O         2.690817         0.261063         0.090993
 H        -2.489552        -2.097704        -0.491508
 H        -1.538415        -2.355027        -1.743110
 H        -0.763662        -2.266707         0.072793
 H        -2.628585        -0.213348        -2.701022
 H        -2.314237         1.414514        -1.569675
 H        -0.286756        -0.361938        -2.896415
 H         1.425061         1.388233        -1.710403
 H        -0.075200         2.312675        -1.689365
 H         0.553530         1.890813         0.666042
 H         1.268930        -0.361134         1.459458
