19
Iteration:  4866charge 0 multiplicity 1
 C        -1.786578        -1.836137        -0.742135
 C        -1.362298        -0.432889        -1.099454
 C        -1.844855         0.492204        -2.296114
 C        -0.405661        -0.013674        -2.222558
 C         0.609033         0.965939        -1.624603
 C         0.245606         0.985838         0.003705
 O        -0.986905         0.188128         0.150076
 C         1.420860         0.481442         0.869942
 O         2.583522         0.639544         0.581284
 H        -2.477100        -1.769222         0.211241
 H        -2.247402        -2.354535        -1.537200
 H        -0.840946        -2.425305        -0.677986
 H        -2.481470         0.185672        -3.102140
 H        -2.014919         1.546546        -2.062221
 H        -0.102170        -0.943037        -2.825544
 H         1.619383         0.573362        -1.963616
 H         0.407803         1.973786        -2.032097
 H         0.059475         2.053322         0.263182
 H         1.018015        -0.301027         1.561269
