19
Iteration:  2048
 C        -1.608179        -1.866692        -0.804727
 C        -1.257871        -0.456594        -0.990063
 C        -2.134236         0.453169        -1.875586
 C        -0.559606         0.236779        -2.122052
 C         0.211000         1.374343        -1.546477
 C         0.375713         1.043786        -0.022005
 O        -0.805070         0.248319         0.242362
 C         1.516987         0.209097         0.597262
 O         2.711950         0.243215         0.158090
 H        -2.389537        -2.080498         0.041784
 H        -2.045587        -2.206893        -1.776219
 H        -0.693432        -2.317738        -0.510237
 H        -2.885704        -0.121984        -2.454636
 H        -2.373585         1.477383        -1.528780
 H        -0.160489        -0.312108        -2.992633
 H         1.271364         1.305756        -1.956549
 H        -0.237300         2.451112        -1.851457
 H         0.331101         1.933885         0.485834
 H         1.158627        -0.438236         1.488717
