19
Iteration:   881charge 0 multiplicity 1
 C        -1.522123        -1.843730        -0.732638
 C        -1.272086        -0.346790        -0.985225
 C        -2.244787         0.388930        -1.939995
 C        -0.640882         0.397086        -2.158260
 C         0.394327         1.309585        -1.495908
 C         0.238798         1.023812        -0.006547
 O        -0.874552         0.227483         0.206160
 C         1.657254         0.286066         0.593713
 O         2.708264         0.124756         0.126625
 H        -2.392562        -1.967169        -0.089202
 H        -1.855842        -2.255978        -1.734446
 H        -0.739422        -2.629448        -0.289529
 H        -2.769539        -0.357769        -2.579610
 H        -2.923856         1.174378        -1.503286
 H        -0.304724        -0.100602        -3.032449
 H         1.557749         1.164178        -1.683284
 H         0.295288         2.345158        -1.825772
 H         0.084602         1.863236         0.575530
 H         1.390459         0.031487         1.719782
