19
Iteration:  3651charge 0 multiplicity 1
 C        -2.058912        -1.835981        -0.975816
 C        -1.407619        -0.509830        -1.016455
 C        -1.955772         0.735975        -1.811973
 C        -0.615836         0.144864        -2.301468
 C         0.610853         0.754693        -1.784805
 C         0.327067         0.857580        -0.170955
 O        -0.644240        -0.236800         0.128851
 C         1.493297         0.662301         0.804006
 O         2.721427         0.904297         0.724287
 H        -2.927036        -1.764604        -1.563201
 H        -1.578639        -2.844596        -1.284596
 H        -2.409364        -1.862693         0.041916
 H        -2.769453         0.426384        -2.484746
 H        -2.208177         1.715159        -1.465541
 H        -0.582425        -0.449786        -3.209084
 H         1.639285         0.234593        -1.995080
 H         0.726938         1.860193        -2.051406
 H        -0.055249         1.786815         0.051980
 H         1.232364        -0.007925         1.604326
