19
Iteration:  4536charge 0 multiplicity 1
 C        -2.234678        -1.795107        -1.028249
 C        -1.441669        -0.489434        -1.053309
 C        -1.817716         0.860132        -1.803361
 C        -0.687226         0.040751        -2.260655
 C         0.648532         0.553641        -1.743319
 C         0.400017         0.662800        -0.131392
 O        -0.616388        -0.246332         0.182314
 C         1.744110         0.445165         0.610247
 O         2.490467         1.367138         0.834813
 H        -3.427095        -1.811210        -1.003246
 H        -1.993449        -2.304792        -2.025956
 H        -2.199954        -2.506473        -0.266028
 H        -2.688324         1.076609        -2.471397
 H        -1.576038         1.754047        -1.202914
 H        -0.897043        -0.558546        -3.209386
 H         1.606159        -0.042226        -2.034054
 H         0.833989         1.534355        -2.126774
 H         0.255769         1.733934         0.238575
 H         1.777044        -0.642476         0.960736
