19
Iteration:  3841charge 0 multiplicity 1
 C        -2.121479        -1.704988        -0.962421
 C        -1.383904        -0.425322        -1.072324
 C        -1.881869         0.808380        -1.679942
 C        -0.701273         0.003102        -2.291575
 C         0.732962         0.356466        -1.842861
 C         0.482126         0.755555        -0.321465
 O        -0.603049        -0.101911         0.086392
 C         1.709519         0.375288         0.533816
 O         2.253736         1.346309         1.094349
 H        -2.193765        -2.179305         0.076881
 H        -3.097180        -1.421489        -1.145934
 H        -1.743776        -2.398631        -1.717034
 H        -2.854626         0.708932        -2.271818
 H        -1.843397         1.786330        -1.113188
 H        -0.771381        -0.657393        -3.155801
 H         1.466621        -0.501667        -1.884872
 H         1.198880         1.153502        -2.411744
 H         0.292397         1.737659        -0.003685
 H         2.105551        -0.652108         0.591437
