19
Iteration:     7charge 0 multiplicity 1
 C        -2.041587        -1.824404        -0.933166
 C        -1.375883        -0.453801        -1.007806
 C        -2.041359         0.772892        -1.600494
 C        -0.721167         0.190917        -2.137579
 C         0.588278         0.914622        -1.666440
 C         0.351533         0.810353        -0.134216
 O        -0.608854        -0.144263         0.166105
 C         1.591077         0.476228         0.672093
 O         2.692343         0.788061         0.283072
 H        -2.693226        -2.091248        -0.079397
 H        -2.544112        -2.074227        -1.876308
 H        -1.252430        -2.598148        -0.954112
 H        -2.974118         0.384436        -2.142003
 H        -1.985284         1.715757        -1.030134
 H        -0.724832        -0.297221        -3.123363
 H         1.320802         0.078058        -1.915154
 H         0.719488         1.943717        -2.035525
 H         0.139519         1.817135         0.368990
 H         1.465073        -0.328510         1.483215
