19
Iteration:  3457
 C        -1.826717        -1.874164        -0.886324
 C        -1.318866        -0.443524        -1.000197
 C        -2.063176         0.554318        -1.893272
 C        -0.619198         0.159618        -2.222094
 C         0.394068         1.088975        -1.619096
 C         0.362702         0.953954        -0.092621
 O        -0.750980         0.120875         0.143887
 C         1.530545         0.375408         0.764556
 O         2.715912         0.574382         0.433289
 H        -2.241779        -2.237630         0.171727
 H        -2.643300        -2.148902        -1.674889
 H        -0.976289        -2.600900        -1.007655
 H        -2.717346         0.084469        -2.585872
 H        -2.260518         1.597021        -1.745362
 H        -0.337987        -0.489642        -3.015646
 H         1.348750         0.774246        -1.960239
 H         0.439663         2.130629        -1.800081
 H         0.140852         1.917654         0.406664
 H         1.308263        -0.433436         1.561215
