19
Iteration:  2497charge 0 multiplicity 1
 C        -1.535842        -1.886547        -0.818051
 C        -1.366253        -0.406387        -0.959994
 C        -2.088521         0.657406        -1.811571
 C        -0.665830         0.255087        -2.172617
 C         0.507242         1.053077        -1.595250
 C         0.362817         0.926527        -0.006441
 O        -0.889120         0.155633         0.284345
 C         1.560532         0.257497         0.602606
 O         2.561842         0.479289         0.080394
 H        -2.554444        -2.183434        -0.277140
 H        -1.685534        -2.200153        -1.800949
 H        -0.683986        -2.304541        -0.321789
 H        -3.031054         0.381450        -2.285444
 H        -2.054950         1.549636        -1.236745
 H        -0.428360        -0.488496        -2.923814
 H         1.519589         0.738853        -1.889127
 H         0.355011         2.156167        -1.801529
 H         0.243251         1.920924         0.619822
 H         1.268102        -0.520548         1.401653
