19
Iteration:   267charge 0 multiplicity 1
 C        -1.615694        -1.892848        -0.745063
 C        -1.259399        -0.436235        -0.998814
 C        -2.092756         0.475488        -1.842141
 C        -0.591041         0.317117        -2.179928
 C         0.374074         1.241665        -1.434981
 C         0.305502         1.000760         0.081590
 O        -0.977772         0.319254         0.239241
 C         1.597697         0.225780         0.560296
 O         2.697585         0.262749        -0.002215
 H        -2.621100        -2.026866        -0.222391
 H        -1.645496        -2.517769        -1.675585
 H        -0.682031        -2.367881        -0.325169
 H        -2.662431        -0.160047        -2.627897
 H        -2.446978         1.594937        -1.593486
 H        -0.284558        -0.231452        -3.051636
 H         1.322333         1.120261        -1.861585
 H         0.135587         2.255749        -1.549730
 H         0.323133         1.944375         0.635478
 H         1.426135        -0.615974         1.373835
