19
Iteration:  4529
 C        -2.267194        -1.793485        -1.061639
 C        -1.436004        -0.452386        -1.051823
 C        -1.893264         0.874146        -1.794181
 C        -0.680472        -0.040865        -2.281203
 C         0.628221         0.587587        -1.732395
 C         0.419638         0.685464        -0.159499
 O        -0.651218        -0.256558         0.176321
 C         1.787414         0.410194         0.613931
 O         2.524974         1.369779         0.878672
 H        -3.311731        -1.486034        -1.112775
 H        -1.952773        -2.395560        -1.861786
 H        -2.045297        -2.540629        -0.215352
 H        -2.679861         0.790710        -2.514346
 H        -1.656309         1.775702        -1.247568
 H        -0.885520        -0.584594        -3.220425
 H         1.591369         0.051318        -1.843021
 H         0.816467         1.597396        -2.156618
 H         0.192238         1.824675         0.061884
 H         2.259526        -0.592433         1.045010
