19
Iteration:  4218
 C        -1.909221        -1.794073        -0.798589
 C        -1.455956        -0.424865        -1.073451
 C        -2.112607         0.627171        -1.989168
 C        -0.659565         0.058475        -2.322614
 C         0.647947         0.802477        -1.753757
 C         0.406899         0.840237        -0.284423
 O        -0.726362         0.076920         0.131300
 C         1.540866         0.412043         0.715363
 O         2.691176         0.864768         0.904243
 H        -2.845119        -2.103729        -1.378003
 H        -1.141508        -2.639854        -1.147517
 H        -1.976200        -1.955563         0.337427
 H        -2.929011         0.311453        -2.660713
 H        -2.265964         1.578936        -1.450084
 H        -0.437891        -0.551315        -3.212308
 H         1.480488         0.105748        -1.959587
 H         0.802225         1.850325        -2.098366
 H         0.320198         1.890048        -0.106479
 H         1.066793        -0.311376         1.393970
