19
Iteration:  2127charge 0 multiplicity 1
 C        -1.524657        -1.889838        -0.810981
 C        -1.381710        -0.347879        -0.935232
 C        -2.073467         0.467606        -1.954377
 C        -0.657745         0.308306        -2.091723
 C         0.389842         1.270033        -1.527553
 C         0.328977         0.907649         0.050478
 O        -0.981259         0.261105         0.268781
 C         1.573259         0.206803         0.606266
 O         2.735360         0.307399         0.010639
 H        -2.376340        -2.009581        -0.188943
 H        -1.540686        -2.427206        -1.743878
 H        -0.546015        -2.237432        -0.281477
 H        -2.817629        -0.112670        -2.516977
 H        -2.471997         1.392024        -1.516524
 H        -0.294999        -0.379764        -2.819103
 H         1.507737         1.097088        -1.739393
 H        -0.015869         2.364507        -1.674355
 H         0.301484         1.794004         0.538421
 H         1.335878        -0.163521         1.611371
