19
Iteration:    84
 C        -1.856733        -1.849366        -0.918338
 C        -1.327859        -0.420320        -0.965105
 C        -2.181013         0.648705        -1.832619
 C        -0.749140         0.268221        -2.110087
 C         0.380775         1.104161        -1.615155
 C         0.403111         0.896589        -0.124696
 O        -0.699725        -0.056537         0.238918
 C         1.676186         0.558570         0.656316
 O         2.808964         0.382807         0.289898
 H        -2.671365        -2.070258        -0.159716
 H        -2.232050        -2.203170        -1.880215
 H        -1.067162        -2.612444        -0.693628
 H        -3.030737         0.120376        -2.374173
 H        -2.589916         1.556964        -1.319225
 H        -0.546373        -0.200927        -3.063828
 H         1.349642         0.671791        -2.123417
 H         0.345807         2.297397        -1.930284
 H         0.165723         1.854372         0.497947
 H         1.404869         0.365680         1.694979
