19
Iteration:  4695charge 0 multiplicity 1
 C        -1.926844        -1.849819        -0.898726
 C        -1.357634        -0.458330        -1.062989
 C        -1.891516         0.676773        -2.017903
 C        -0.531018         0.081452        -2.234140
 C         0.646051         0.697808        -1.673037
 C         0.365649         0.800103        -0.076475
 O        -0.904744        -0.004597         0.152285
 C         1.500234         0.487794         0.828203
 O         2.583860         0.963451         0.587666
 H        -1.067652        -2.444510        -0.985718
 H        -2.358860        -1.789199         0.092681
 H        -2.746695        -2.036525        -1.646566
 H        -2.666911         0.509786        -2.795178
 H        -1.937822         1.717075        -1.579051
 H        -0.570605        -0.739634        -3.028510
 H         1.572485         0.251344        -1.926559
 H         0.850836         1.772551        -2.048229
 H         0.184734         1.860058         0.156111
 H         1.219866        -0.177748         1.743731
