19
Iteration:  1084
 C        -1.444657        -1.862127        -0.727103
 C        -1.396115        -0.384434        -0.978831
 C        -2.114599         0.614054        -1.876559
 C        -0.739747         0.254045        -2.159641
 C         0.349705         1.181854        -1.580434
 C         0.376332         0.787685        -0.069958
 O        -0.936549         0.322732         0.242758
 C         1.571080         0.067280         0.527993
 O         2.726196         0.470038         0.203253
 H        -2.436539        -2.191205        -0.148753
 H        -1.480984        -2.464632        -1.653461
 H        -0.469314        -2.118312        -0.227499
 H        -2.931905         0.296639        -2.506587
 H        -2.377508         1.539085        -1.366154
 H        -0.300983        -0.383587        -2.908023
 H         1.269151         1.003609        -1.996312
 H         0.244965         2.259673        -1.617243
 H         0.274687         1.614833         0.524261
 H         1.351368        -0.648813         1.324575
