19
Iteration:   195
 C        -1.663363        -1.923799        -0.969845
 C        -1.341756        -0.424307        -0.889950
 C        -2.104432         0.499469        -1.794817
 C        -0.615214         0.309524        -2.067727
 C         0.435092         1.198701        -1.544474
 C         0.377370         1.077748        -0.051686
 O        -0.950467         0.191845         0.293893
 C         1.635221         0.375684         0.615203
 O         2.688835         0.217443         0.071542
 H        -2.111900        -2.129024         0.047386
 H        -2.216618        -2.151997        -1.851826
 H        -0.723603        -2.540369        -0.966418
 H        -2.664983        -0.093796        -2.497662
 H        -2.527963         1.407563        -1.430649
 H        -0.419942        -0.290407        -2.949468
 H         1.530098         0.950458        -1.911969
 H         0.086462         2.324952        -1.795626
 H         0.070581         2.061877         0.416860
 H         1.493882         0.037375         1.721881
