19
Iteration:   265
 C        -1.618164        -1.910514        -0.728222
 C        -1.257087        -0.435506        -1.003577
 C        -2.082862         0.498486        -1.855091
 C        -0.598986         0.322447        -2.182405
 C         0.373840         1.247266        -1.416743
 C         0.292671         1.012531         0.062192
 O        -0.972365         0.294940         0.227769
 C         1.586175         0.224176         0.558322
 O         2.704266         0.261816        -0.000222
 H        -2.493872        -1.984064        -0.206444
 H        -1.649429        -2.511744        -1.654304
 H        -0.778216        -2.320454        -0.288532
 H        -2.673727        -0.172441        -2.562417
 H        -2.417564         1.584491        -1.501950
 H        -0.270503        -0.258396        -3.039067
 H         1.393858         1.095451        -1.892716
 H         0.081283         2.275472        -1.530979
 H         0.360651         1.954138         0.618297
 H         1.391876        -0.589965         1.387675
