19
Iteration:  4935
 C        -1.729453        -1.909108        -0.848595
 C        -1.280941        -0.516145        -1.005768
 C        -1.835173         0.371049        -2.160827
 C        -0.381680        -0.006093        -2.127960
 C         0.582150         1.019981        -1.643434
 C         0.277335         1.082084        -0.151672
 O        -1.003239         0.426187         0.100423
 C         1.345926         0.548186         0.762269
 O         2.553302         0.440078         0.676860
 H        -1.526592        -2.460522         0.052798
 H        -2.749885        -2.167343        -0.834696
 H        -1.514143        -2.537359        -1.763571
 H        -2.545963        -0.020837        -2.949574
 H        -2.024521         1.424381        -1.867744
 H         0.021259        -0.804604        -2.717038
 H         1.616761         0.813622        -1.732883
 H         0.368452         2.087639        -2.026567
 H         0.023165         2.154369         0.187363
 H         0.794986         0.066427         1.529643
