19
Iteration:   254
 C        -1.578577        -1.909136        -0.678718
 C        -1.287339        -0.423768        -1.007027
 C        -2.044712         0.559817        -1.924822
 C        -0.593319         0.311101        -2.110896
 C         0.368891         1.325076        -1.468645
 C         0.284806         0.989186         0.004994
 O        -0.895157         0.185871         0.210273
 C         1.555765         0.204904         0.493255
 O         2.661703         0.260459         0.047736
 H        -2.417312        -1.905969        -0.064852
 H        -1.839180        -2.518401        -1.566052
 H        -0.872375        -2.316457        -0.039080
 H        -2.951721         0.180024        -2.476676
 H        -2.388014         1.360805        -1.172288
 H        -0.247900        -0.198294        -3.008845
 H         1.463010         1.205364        -1.729325
 H         0.081831         2.321250        -1.723428
 H         0.147332         1.881637         0.636456
 H         1.300434        -0.355924         1.495520
