19
Iteration:  4958
 C        -1.613324        -1.775481        -0.775847
 C        -1.345422        -0.361401        -1.076303
 C        -1.863509         0.362455        -2.252142
 C        -0.368649        -0.031191        -2.218008
 C         0.567893         0.975243        -1.647546
 C         0.291177         1.123099        -0.044616
 O        -0.974675         0.304547         0.135853
 C         1.315710         0.452774         0.878779
 O         2.461609         0.446165         0.583910
 H        -0.873629        -2.202396        -0.187498
 H        -2.483101        -2.138524        -0.222067
 H        -1.789222        -2.341685        -1.720717
 H        -2.434473        -0.399364        -2.816519
 H        -2.209737         1.409003        -2.338769
 H         0.043936        -0.811869        -2.767063
 H         1.572707         0.612096        -1.725561
 H         0.515371         1.996821        -2.127233
 H         0.098281         2.194346         0.353602
 H         0.957405         0.218074         1.862319
