19
Iteration:    91charge 0 multiplicity 1
 C        -1.833977        -1.887128        -0.915812
 C        -1.331570        -0.436071        -0.954422
 C        -2.157540         0.588698        -1.740622
 C        -0.731252         0.310278        -2.199852
 C         0.405198         1.147769        -1.636914
 C         0.345126         0.963715        -0.120578
 O        -0.726859        -0.049077         0.259219
 C         1.633812         0.498774         0.608981
 O         2.843305         0.363705         0.302744
 H        -2.699755        -1.793208        -0.216402
 H        -2.328516        -2.114006        -1.968426
 H        -1.033043        -2.584497        -0.551481
 H        -3.004629         0.082948        -2.201064
 H        -2.305217         1.594136        -1.396237
 H        -0.528473        -0.293093        -3.110819
 H         1.309365         0.747587        -1.994719
 H         0.414909         2.251806        -1.928717
 H         0.069135         1.893828         0.357029
 H         1.305342         0.423631         1.723370
