19
Iteration:  1850
 C        -1.412548        -1.913331        -0.768192
 C        -1.258156        -0.443769        -0.892424
 C        -1.990717         0.488567        -1.964446
 C        -0.523214         0.246120        -2.040992
 C         0.423580         1.268507        -1.468023
 C         0.246174         1.050623         0.096215
 O        -0.937131         0.348461         0.315748
 C         1.450040         0.152172         0.464179
 O         2.494827         0.282066        -0.057040
 H        -2.014444        -2.189627         0.169709
 H        -1.981990        -2.078843        -1.688894
 H        -0.582113        -2.537572        -0.824470
 H        -2.826593         0.097630        -2.489912
 H        -2.327492         1.462910        -1.617236
 H        -0.226097        -0.406442        -2.840348
 H         1.404919         1.142128        -1.810062
 H         0.093161         2.221160        -1.823504
 H         0.374895         2.090504         0.672968
 H         0.940557        -0.589625         1.183894
