19
Iteration:  3241
 C        -1.576120        -1.867702        -0.731817
 C        -1.335646        -0.451080        -1.046340
 C        -2.060772         0.489400        -2.000871
 C        -0.560955         0.281531        -2.071064
 C         0.443937         1.259251        -1.484488
 C         0.335611         0.942338        -0.001314
 O        -0.958610         0.263364         0.231401
 C         1.554404         0.257904         0.600800
 O         2.626944         0.337356         0.136100
 H        -0.643364        -2.465467        -0.820962
 H        -1.920940        -2.077131         0.231091
 H        -2.232380        -2.346525        -1.406862
 H        -2.582932        -0.126768        -2.744501
 H        -2.576275         1.352739        -1.649180
 H        -0.317459        -0.253880        -3.004628
 H         1.475849         1.163377        -1.912867
 H        -0.022404         2.296835        -1.572976
 H         0.257096         1.902645         0.667389
 H         1.266510        -0.508250         1.342135
