19
Iteration:  4321charge 0 multiplicity 1
 C        -2.106621        -1.776978        -0.722033
 C        -1.383496        -0.462115        -0.991356
 C        -2.083200         0.497246        -1.949146
 C        -0.627441         0.025224        -2.249243
 C         0.542251         0.942160        -1.855078
 C         0.450097         0.912362        -0.344412
 O        -0.647737         0.097728         0.091867
 C         1.751064         0.321738         0.396616
 O         2.551570         0.871503         1.194576
 H        -1.900901        -2.414857        -1.681033
 H        -1.759263        -2.175038         0.210517
 H        -3.220307        -1.650307        -0.711921
 H        -2.901470         0.172534        -2.605312
 H        -2.047631         1.473052        -1.470727
 H        -0.395309        -0.572955        -3.201631
 H         1.480235         0.562851        -2.224203
 H         0.531683         1.961431        -2.233235
 H         0.377220         1.901478        -0.054341
 H         1.873317        -0.783980         0.186301
