19
Iteration:  1706charge 0 multiplicity 1
 C        -1.333996        -1.823345        -0.725149
 C        -1.346845        -0.369422        -0.955261
 C        -2.109174         0.466299        -1.964132
 C        -0.603597         0.329408        -2.119522
 C         0.461072         1.237729        -1.445282
 C         0.244257         0.997251         0.088268
 O        -1.024008         0.258151         0.320421
 C         1.553763         0.335894         0.629809
 O         2.568972         0.129173        -0.149447
 H        -2.136704        -2.282847         0.112549
 H        -1.497597        -2.328160        -1.733763
 H        -0.384679        -2.303661        -0.581016
 H        -2.698218        -0.073247        -2.719351
 H        -2.518033         1.439165        -1.608771
 H        -0.194678        -0.265079        -2.997984
 H         1.478151         0.973913        -1.677338
 H         0.283932         2.313159        -1.626197
 H         0.233070         1.977663         0.604807
 H         1.321962        -0.250073         1.569813
