19
Iteration:  2926charge 0 multiplicity 1
 C        -1.407698        -1.867375        -0.593662
 C        -1.351587        -0.439922        -0.988574
 C        -1.994682         0.463784        -2.028715
 C        -0.552930         0.312576        -2.156275
 C         0.346757         1.444467        -1.505636
 C         0.285564         0.959693         0.069718
 O        -0.953525         0.319052         0.229837
 C         1.480968         0.181915         0.592347
 O         2.587382         0.129441        -0.004964
 H        -1.632520        -1.994424         0.507452
 H        -2.172082        -2.537774        -1.262551
 H        -0.448186        -2.368878        -0.821876
 H        -2.715112         0.017342        -2.718435
 H        -2.396771         1.339192        -1.553173
 H        -0.206030        -0.170807        -3.092302
 H         1.359166         1.492952        -1.914003
 H        -0.109563         2.445754        -1.628476
 H         0.220974         1.852994         0.890855
 H         1.280379        -0.432294         1.503965
