19
Iteration:  1892charge 0 multiplicity 1
 C        -1.576084        -1.898881        -0.683587
 C        -1.223466        -0.418258        -0.952414
 C        -2.090185         0.434097        -2.018185
 C        -0.569414         0.268017        -2.155167
 C         0.243991         1.422486        -1.455454
 C         0.327318         1.050969         0.031488
 O        -0.867190         0.283046         0.259568
 C         1.577422         0.194810         0.478216
 O         2.671702         0.188587         0.100068
 H        -2.562870        -1.948783        -0.103528
 H        -1.559071        -2.454777        -1.619080
 H        -0.816361        -2.447492        -0.176343
 H        -2.739237        -0.012146        -2.752639
 H        -2.610221         1.277265        -1.555803
 H        -0.226501        -0.363168        -2.966905
 H         1.267041         1.420608        -1.850008
 H        -0.352495         2.403555        -1.611817
 H         0.195728         1.864404         0.737025
 H         1.267328        -0.440137         1.390975
