19
Iteration:  4851
 C        -1.804178        -1.868139        -0.856207
 C        -1.346648        -0.431556        -1.079024
 C        -1.843320         0.456155        -2.143744
 C        -0.414143        -0.061703        -2.141896
 C         0.607114         0.928787        -1.554642
 C         0.286044         0.975422        -0.126100
 O        -0.980641         0.288566         0.097586
 C         1.385090         0.407721         0.794679
 O         2.576926         0.691743         0.589859
 H        -2.690976        -1.799503        -0.289193
 H        -2.055751        -2.311480        -1.925231
 H        -1.129197        -2.336366        -0.180177
 H        -2.566768         0.009917        -2.839734
 H        -1.975789         1.481819        -1.827993
 H        -0.038845        -0.646814        -2.903532
 H         1.698529         0.672924        -1.581712
 H         0.448237         1.894277        -2.000935
 H         0.143416         1.949311         0.265021
 H         1.186340         0.015257         1.764385
