19
Iteration:  1531charge 0 multiplicity 1
 C        -1.571783        -1.904394        -0.787038
 C        -1.290145        -0.383408        -0.930320
 C        -2.145856         0.394862        -1.929896
 C        -0.642014         0.243669        -2.188168
 C         0.256479         1.379343        -1.545947
 C         0.368992         1.041313        -0.016603
 O        -0.844313         0.265891         0.260881
 C         1.614745         0.189212         0.530926
 O         2.746326         0.251503         0.205005
 H        -2.424217        -2.096392         0.012318
 H        -2.033519        -2.312550        -1.665721
 H        -0.874491        -2.577432        -0.370760
 H        -2.934572         0.071137        -2.658566
 H        -2.312593         1.420702        -1.588980
 H        -0.254735        -0.343201        -2.992031
 H         1.262151         1.652809        -1.960373
 H        -0.243581         2.336743        -1.758334
 H         0.214590         1.945397         0.738658
 H         1.098279        -0.420300         1.383064
