19
Iteration:  1790
 C        -1.443400        -1.887901        -0.695803
 C        -1.294131        -0.383919        -1.018296
 C        -2.111286         0.384443        -1.902986
 C        -0.594026         0.346240        -2.120107
 C         0.259215         1.451491        -1.514831
 C         0.336869         1.091561        -0.002424
 O        -0.827452         0.287638         0.235188
 C         1.490531         0.180535         0.563347
 O         2.620341         0.071255         0.093043
 H        -2.209206        -2.126302        -0.073826
 H        -1.729483        -2.410044        -1.585244
 H        -0.469012        -2.203164        -0.299510
 H        -2.605257        -0.294745        -2.609445
 H        -2.633860         1.298559        -1.548490
 H        -0.367383        -0.182123        -3.069735
 H         1.343272         1.485821        -1.930456
 H        -0.328810         2.360539        -1.827514
 H         0.272598         1.964438         0.633427
 H         1.320843        -0.343754         1.538529
