19
Iteration:   689charge 0 multiplicity 1
 C        -1.447451        -1.903375        -0.668667
 C        -1.390145        -0.384042        -0.907690
 C        -2.049571         0.474582        -1.990593
 C        -0.522245         0.323836        -2.056789
 C         0.415432         1.322183        -1.476751
 C         0.354151         0.966348         0.039842
 O        -1.041680         0.344592         0.299450
 C         1.523148         0.120312         0.468595
 O         2.592256         0.247409        -0.064768
 H        -2.248866        -2.189692         0.055690
 H        -1.885221        -2.335535        -1.671907
 H        -0.522239        -2.420839        -0.525388
 H        -2.811882        -0.063167        -2.643197
 H        -2.310881         1.474009        -1.586382
 H        -0.050667        -0.340036        -2.753678
 H         1.381608         1.195868        -1.908852
 H         0.280329         2.514761        -1.568312
 H         0.442011         1.765532         0.811960
 H         1.311345        -0.622636         1.322483
