19
Iteration:  3394charge 0 multiplicity 1
 C        -1.775514        -1.864602        -0.919413
 C        -1.298995        -0.434661        -1.009656
 C        -2.019303         0.585761        -1.907207
 C        -0.490328         0.100758        -2.094253
 C         0.558855         1.079276        -1.528643
 C         0.300634         0.919440         0.004948
 O        -0.876915         0.142539         0.317250
 C         1.488565         0.309451         0.551315
 O         2.585843         0.629890         0.234699
 H        -2.854005        -1.979914        -1.203629
 H        -1.258860        -2.534931        -1.508123
 H        -1.606951        -2.299209         0.094060
 H        -2.673891         0.322720        -2.704256
 H        -2.220671         1.519882        -1.394672
 H        -0.368018        -0.624921        -2.883326
 H         1.574667         0.817766        -1.767134
 H         0.419726         2.111904        -1.921719
 H         0.209579         2.035809         0.300819
 H         1.273258        -0.580627         1.188482
