19
Iteration:  4319charge 0 multiplicity 1
 C        -2.112904        -1.773910        -0.727661
 C        -1.391085        -0.459995        -0.995721
 C        -2.093957         0.504833        -1.954353
 C        -0.612547         0.011969        -2.244882
 C         0.535457         0.945411        -1.862206
 C         0.465117         0.908551        -0.341531
 O        -0.666314         0.097043         0.091266
 C         1.743797         0.325193         0.409377
 O         2.576005         0.878546         1.203784
 H        -1.879598        -2.425076        -1.733441
 H        -1.782513        -2.198503         0.262214
 H        -3.187003        -1.717052        -0.681049
 H        -2.893486         0.108936        -2.593373
 H        -2.013859         1.508112        -1.532214
 H        -0.483768        -0.517855        -3.188998
 H         1.495000         0.543629        -2.251403
 H         0.519710         1.926229        -2.240302
 H         0.391720         1.865302         0.026302
 H         1.882965        -0.749202         0.037760
