19
Iteration:  1564charge 0 multiplicity 1
 C        -1.454938        -1.885068        -0.762059
 C        -1.272058        -0.421812        -0.865027
 C        -2.081091         0.467539        -1.819518
 C        -0.616874         0.255897        -2.111439
 C         0.438701         1.288523        -1.556050
 C         0.299700         1.043155        -0.005172
 O        -0.908358         0.314977         0.284642
 C         1.447960         0.111132         0.382061
 O         2.567308         0.334407         0.117257
 H        -2.593832        -2.091105        -0.524758
 H        -1.349336        -2.204290        -1.808488
 H        -0.744771        -2.474733        -0.265259
 H        -2.776951         0.062751        -2.598592
 H        -2.271931         1.488388        -1.452219
 H        -0.247595        -0.395984        -2.891597
 H         1.461306         0.958397        -1.728676
 H         0.065435         2.275949        -1.764535
 H         0.400462         1.969545         0.661672
 H         1.375319        -0.800856         0.980202
