19
Iteration:  2752
 C        -1.588166        -1.828616        -0.830442
 C        -1.414367        -0.406703        -0.865767
 C        -1.980181         0.489012        -1.961861
 C        -0.547658         0.163221        -2.053205
 C         0.468737         1.219985        -1.462049
 C         0.248443         0.969719         0.024933
 O        -0.928047         0.245163         0.327338
 C         1.527376         0.189356         0.591578
 O         2.602558         0.451189        -0.060449
 H        -2.054652        -2.197194         0.020317
 H        -2.357229        -2.109247        -1.638354
 H        -0.741887        -2.395955        -0.965659
 H        -2.678350         0.039135        -2.674171
 H        -2.099858         1.567820        -1.760275
 H        -0.097373        -0.600901        -2.672657
 H         1.582188         0.998828        -1.803737
 H         0.226469         2.335607        -1.921207
 H         0.356012         1.779350         0.650043
 H         1.498407        -0.619533         1.366955
