19
Iteration:  1256
 C        -1.634905        -1.897705        -0.813419
 C        -1.257452        -0.390915        -0.979144
 C        -2.115028         0.538990        -1.772235
 C        -0.657927         0.196312        -2.168742
 C         0.281360         1.270577        -1.641570
 C         0.311338         1.066677        -0.083341
 O        -0.726449         0.164417         0.299400
 C         1.494508         0.264281         0.403618
 O         2.736593         0.315650         0.346132
 H        -2.578520        -1.986257        -0.287452
 H        -1.819465        -2.366925        -1.772963
 H        -0.946352        -2.366390        -0.174630
 H        -2.868362         0.030113        -2.355773
 H        -2.263804         1.484458        -1.319932
 H        -0.261583        -0.382501        -3.016413
 H         1.359440         1.200845        -2.187241
 H        -0.093730         2.325261        -2.011408
 H         0.255736         1.873799         0.629092
 H         1.005688        -0.587074         1.022071
