19
Iteration:  3167
 C        -1.444176        -1.856899        -0.832591
 C        -1.337761        -0.378046        -0.854511
 C        -1.963343         0.439406        -1.915021
 C        -0.496631         0.216127        -2.064987
 C         0.413892         1.333699        -1.482889
 C         0.240662         1.071230         0.065427
 O        -0.993985         0.326474         0.298609
 C         1.466696         0.171816         0.416482
 O         2.590758         0.224815         0.010284
 H        -1.668156        -2.041239         0.221667
 H        -2.399431        -2.314113        -1.257156
 H        -0.634673        -2.601101        -1.159845
 H        -2.602293        -0.199651        -2.500179
 H        -2.412292         1.349473        -1.649116
 H        -0.228616        -0.490282        -2.834690
 H         1.473161         1.331441        -1.715335
 H        -0.089031         2.258705        -1.591810
 H         0.247885         2.044843         0.597438
 H         1.213126        -0.636950         1.149531
