19
Iteration:  4522charge 0 multiplicity 1
 C        -2.272498        -1.756833        -1.078218
 C        -1.448196        -0.439593        -1.049145
 C        -1.926987         0.800599        -1.781234
 C        -0.662981        -0.054090        -2.236198
 C         0.626753         0.608015        -1.719762
 C         0.447855         0.689177        -0.195171
 O        -0.674939        -0.247424         0.139210
 C         1.841798         0.419901         0.635296
 O         2.534738         1.358179         0.904519
 H        -3.269456        -1.431202        -1.175801
 H        -2.003824        -2.427196        -1.967811
 H        -1.954813        -2.173771        -0.079876
 H        -2.848353         0.644049        -2.379004
 H        -1.802522         1.838573        -1.421870
 H        -0.615935        -0.552166        -3.163692
 H         1.449055        -0.039684        -1.916750
 H         0.789084         1.635524        -2.147959
 H         0.078028         1.594627         0.064899
 H         2.163508        -0.567632         0.796675
