19
Iteration:  2444charge 0 multiplicity 1
 C        -1.635118        -1.872354        -0.898184
 C        -1.343448        -0.436701        -0.986501
 C        -2.197494         0.478842        -1.766926
 C        -0.735106         0.269513        -2.153595
 C         0.338124         1.224122        -1.639640
 C         0.378851         0.987713        -0.111296
 O        -0.732210         0.199784         0.235047
 C         1.597284         0.312794         0.646967
 O         2.743685         0.311843         0.272638
 H        -2.666038        -1.907818        -0.293167
 H        -1.627930        -2.343035        -1.887088
 H        -0.803161        -2.185051        -0.163511
 H        -2.833868        -0.077035        -2.447446
 H        -2.446671         1.468762        -1.503437
 H        -0.592692        -0.201776        -3.105928
 H         1.340187         0.950061        -1.948529
 H         0.069650         2.217953        -1.889357
 H         0.292444         1.860450         0.579885
 H         1.260014        -0.053748         1.636366
