19
Iteration:  3402
 C        -1.774089        -1.894979        -0.880345
 C        -1.331445        -0.442500        -1.014247
 C        -2.015469         0.625664        -1.977477
 C        -0.491018         0.086761        -2.080473
 C         0.522596         1.016559        -1.538072
 C         0.271042         0.935938         0.020764
 O        -0.853543         0.167197         0.282701
 C         1.505910         0.279297         0.624477
 O         2.635884         0.666337         0.205633
 H        -2.928446        -1.863919        -1.046563
 H        -1.193706        -2.390095        -1.755207
 H        -1.506212        -2.271391         0.089053
 H        -2.622679         0.388480        -2.830816
 H        -2.389801         1.392473        -1.304282
 H        -0.409995        -0.358093        -3.044934
 H         1.508817         0.683303        -1.700463
 H         0.378444         2.007923        -1.809997
 H         0.131984         1.936821         0.725454
 H         1.271318        -0.650207         1.202438
