19
Iteration:  2054
 C        -1.590959        -1.886679        -0.815963
 C        -1.260531        -0.396005        -0.989194
 C        -2.079081         0.473280        -1.853712
 C        -0.605025         0.195823        -2.113877
 C         0.288820         1.378567        -1.521650
 C         0.362576         1.046326        -0.043386
 O        -0.795037         0.244803         0.253733
 C         1.482468         0.212887         0.571703
 O         2.678495         0.255139         0.139031
 H        -2.407076        -1.928361        -0.135015
 H        -1.908999        -2.298336        -1.773757
 H        -0.698514        -2.504855        -0.436713
 H        -2.830465        -0.099499        -2.365364
 H        -2.352338         1.376243        -1.336037
 H        -0.141461        -0.398232        -2.944225
 H         1.169778         1.205883        -2.106678
 H        -0.202623         2.241198        -1.727703
 H         0.051423         2.029112         0.587704
 H         1.018585        -0.427123         1.334624
