19
Iteration:  4347
 C        -1.948085        -1.749035        -0.684830
 C        -1.254523        -0.420874        -0.995591
 C        -1.986493         0.622772        -1.856332
 C        -0.657201        -0.003739        -2.293601
 C         0.548516         0.868245        -1.879069
 C         0.450946         0.901998        -0.294460
 O        -0.610466         0.038296         0.121420
 C         1.563426         0.266822         0.414075
 O         2.333565         0.868016         1.051777
 H        -1.940648        -2.331959        -1.508945
 H        -1.295076        -2.139484         0.126696
 H        -3.017970        -1.513575        -0.445010
 H        -2.915444         0.261350        -2.339462
 H        -1.940307         1.688482        -1.584731
 H        -0.533606        -0.378818        -3.344481
 H         1.506939         0.379842        -2.169288
 H         0.647138         1.907056        -2.367586
 H         0.517590         2.086251         0.017207
 H         1.805234        -0.802602         0.139946
