19
Iteration:  2818
 C        -1.609762        -1.830016        -0.684115
 C        -1.226309        -0.467515        -1.034601
 C        -2.109248         0.348352        -1.946939
 C        -0.684382         0.410991        -2.155607
 C         0.295022         1.387744        -1.492469
 C         0.387340         0.970135        -0.070373
 O        -0.803041         0.226100         0.217598
 C         1.546970         0.236891         0.575397
 O         2.661165         0.216369         0.164509
 H        -2.556921        -1.831370        -0.249999
 H        -1.515455        -2.608566        -1.513041
 H        -0.969995        -2.099266         0.090234
 H        -2.763077        -0.091398        -2.693077
 H        -2.508425         1.213392        -1.432195
 H        -0.420237        -0.189155        -3.022022
 H         1.397599         1.203105        -1.740356
 H        -0.123289         2.504860        -1.580358
 H         0.359030         1.872379         0.403505
 H         1.184948        -0.251541         1.511282
