19
Iteration:  1097
 C        -1.505747        -1.807103        -0.766017
 C        -1.373608        -0.343357        -0.980868
 C        -2.219754         0.474674        -1.885693
 C        -0.673384         0.287587        -2.182207
 C         0.370489         1.228451        -1.609114
 C         0.395282         0.836968        -0.049213
 O        -0.887108         0.246109         0.282504
 C         1.556809         0.113328         0.509318
 O         2.743421         0.419103         0.268591
 H        -2.357220        -1.956497         0.012109
 H        -1.601024        -2.380084        -1.674766
 H        -0.635236        -2.217447        -0.110678
 H        -3.053510         0.143913        -2.577150
 H        -2.270567         1.520895        -1.505320
 H        -0.559141        -0.385263        -3.038713
 H         1.287256         1.204002        -2.234825
 H        -0.136009         2.297658        -1.647887
 H         0.655411         1.720681         0.425471
 H         1.373351        -0.591010         1.291326
