19
Iteration:  2121charge 0 multiplicity 1
 C        -1.490492        -1.871799        -0.826919
 C        -1.413248        -0.372587        -0.929430
 C        -2.099678         0.496661        -1.937124
 C        -0.581811         0.282139        -2.091631
 C         0.375919         1.246664        -1.523446
 C         0.304536         0.888682         0.026245
 O        -0.973255         0.276885         0.267211
 C         1.616210         0.207257         0.598406
 O         2.662823         0.321538         0.014379
 H        -2.419861        -2.058278        -0.197511
 H        -1.519272        -2.439951        -1.781190
 H        -0.657388        -2.102816        -0.134319
 H        -2.818073        -0.074925        -2.515334
 H        -2.503608         1.387336        -1.480160
 H        -0.283877        -0.278551        -3.058002
 H         1.395603         0.953323        -1.773771
 H         0.169461         2.258485        -1.571067
 H         0.422586         1.918257         0.700247
 H         1.641881        -0.176225         1.693357
