19
Iteration:   817charge 0 multiplicity 1
 C        -1.376392        -1.872170        -0.803618
 C        -1.320374        -0.319122        -0.919441
 C        -2.140993         0.497266        -1.891268
 C        -0.514276         0.191523        -2.027765
 C         0.400172         1.302958        -1.558095
 C         0.279896         1.132776         0.004716
 O        -0.883074         0.296678         0.325248
 C         1.370386         0.143256         0.460631
 O         2.593623         0.187529         0.051902
 H        -1.952440        -2.097812         0.096619
 H        -1.847714        -2.296262        -1.749744
 H        -0.326551        -2.339642        -0.668027
 H        -2.922061        -0.043210        -2.516413
 H        -2.511808         1.489239        -1.494588
 H        -0.218731        -0.443366        -2.827089
 H         1.453837         0.945000        -1.727264
 H         0.215894         2.243924        -1.828674
 H         0.291542         2.096817         0.577470
 H         1.067573        -0.731947         1.110152
