19
Iteration:  3056charge 0 multiplicity 1
 C        -1.360006        -1.917146        -0.772109
 C        -1.213456        -0.321258        -0.893527
 C        -2.120316         0.364385        -1.855647
 C        -0.544212         0.307359        -2.151337
 C         0.312138         1.410384        -1.513587
 C         0.302710         1.085506         0.025545
 O        -0.922738         0.395213         0.286427
 C         1.445241         0.211925         0.517347
 O         2.547571        -0.001157        -0.006317
 H        -2.412923        -2.286153        -0.989490
 H        -0.686505        -2.465035        -1.498864
 H        -1.022117        -2.027316         0.276332
 H        -2.812340        -0.252592        -2.425133
 H        -2.497440         1.349580        -1.529762
 H        -0.078427        -0.209085        -3.044301
 H         1.344164         1.490549        -1.813488
 H        -0.073481         2.403887        -1.570907
 H         0.236992         1.924010         0.659202
 H         1.138431        -0.444678         1.358561
