19
Iteration:   277charge 0 multiplicity 1
 C        -1.570683        -1.859651        -0.831091
 C        -1.317035        -0.389286        -0.938166
 C        -2.114188         0.379473        -1.888452
 C        -0.585460         0.268208        -2.083740
 C         0.392107         1.273282        -1.504983
 C         0.349463         0.947146         0.101621
 O        -0.960390         0.383063         0.286732
 C         1.604399         0.175327         0.552680
 O         2.668079         0.287089        -0.009803
 H        -2.466507        -2.079125        -0.267828
 H        -1.737749        -2.219180        -1.870653
 H        -0.865316        -2.395552        -0.223600
 H        -2.748310        -0.031516        -2.757655
 H        -2.588786         1.455155        -1.632553
 H        -0.293689        -0.163224        -3.020707
 H         1.428827         1.083450        -1.794350
 H         0.173159         2.275155        -1.752795
 H         0.213336         1.846375         0.699948
 H         1.462824        -0.540184         1.482939
