19
Iteration:  2076charge 0 multiplicity 1
 C        -1.569141        -1.915937        -0.794130
 C        -1.272625        -0.433210        -0.943983
 C        -2.062425         0.514325        -1.780084
 C        -0.555178         0.262874        -2.082030
 C         0.420142         1.305384        -1.579997
 C         0.266652         1.035239        -0.033319
 O        -0.871550         0.210994         0.336310
 C         1.473346         0.207367         0.481737
 O         2.594741         0.305889         0.065766
 H        -2.520747        -2.203345        -0.399258
 H        -1.430485        -2.233047        -1.835477
 H        -0.653467        -2.326546        -0.214220
 H        -2.631905         0.107497        -2.601111
 H        -2.260174         1.518572        -1.471652
 H        -0.276031        -0.243826        -3.086724
 H         1.466683         0.914763        -1.679938
 H         0.174898         2.226737        -1.972507
 H         0.155186         2.132315         0.513822
 H         0.996866        -0.392133         1.287685
