19
Iteration:  3080charge 0 multiplicity 1
 C        -1.362003        -1.916466        -0.813052
 C        -1.205392        -0.386040        -0.819237
 C        -2.089767         0.318174        -1.875162
 C        -0.569695         0.269774        -1.993623
 C         0.235412         1.505750        -1.572307
 C         0.375485         1.104479        -0.077099
 O        -0.875948         0.440269         0.282379
 C         1.407144         0.177436         0.494478
 O         2.568658        -0.011573         0.074650
 H        -2.408456        -1.959046        -1.138955
 H        -0.907618        -2.404557        -1.839459
 H        -1.100026        -2.424780         0.194538
 H        -2.644788        -0.174037        -2.628211
 H        -2.447620         1.274101        -1.551549
 H        -0.385659        -0.142658        -2.984604
 H         1.217459         1.683002        -2.021911
 H        -0.258569         2.455883        -1.525525
 H         0.391597         1.931145         0.555394
 H         0.970967        -0.494869         1.292666
