19
Iteration:  3303charge 0 multiplicity 1
 C        -1.613352        -1.961921        -0.864390
 C        -1.335129        -0.464649        -1.013701
 C        -2.110230         0.541651        -1.869176
 C        -0.653624         0.220673        -2.102066
 C         0.455659         1.245569        -1.597374
 C         0.327628         1.002302        -0.046319
 O        -0.849762         0.230518         0.156437
 C         1.483359         0.305681         0.618238
 O         2.689502         0.388532         0.324191
 H        -1.002192        -2.387826        -1.708847
 H        -1.209992        -2.207467         0.216763
 H        -2.660842        -2.180593        -0.841414
 H        -2.975467         0.060534        -2.366723
 H        -2.298095         1.535610        -1.441103
 H        -0.306726        -0.460728        -2.931117
 H         1.398728         0.726577        -1.765817
 H         0.486656         2.224292        -2.035170
 H         0.401928         1.968167         0.452237
 H         1.082046        -0.365770         1.418703
