19
Iteration:  1358charge 0 multiplicity 1
 C        -1.689766        -1.843192        -0.823405
 C        -1.254767        -0.401459        -0.896717
 C        -2.031761         0.534102        -1.803721
 C        -0.571487         0.158176        -2.129702
 C         0.371354         1.270641        -1.645531
 C         0.271896         1.027981        -0.015974
 O        -0.796545         0.141097         0.269958
 C         1.544115         0.236093         0.508133
 O         2.611916         0.385193         0.168235
 H        -2.405873        -2.072908        -0.034989
 H        -2.047504        -2.237734        -1.728919
 H        -0.837299        -2.461836        -0.776618
 H        -2.748229         0.004605        -2.503311
 H        -2.264244         1.581126        -1.376348
 H        -0.261098        -0.407261        -2.998347
 H         1.457481         1.131889        -1.779657
 H        -0.031504         2.259216        -1.914045
 H         0.225262         1.911288         0.660673
 H         1.199751        -0.431816         1.313909
