19
Iteration:   855
 C        -1.522266        -1.960222        -0.735304
 C        -1.255179        -0.435271        -1.005402
 C        -2.150262         0.463441        -1.901192
 C        -0.608550         0.318621        -2.170293
 C         0.236611         1.430997        -1.534415
 C         0.431990         0.999293        -0.067134
 O        -0.873680         0.310900         0.230930
 C         1.522525         0.267495         0.622011
 O         2.684462         0.101981         0.155542
 H        -2.173724        -1.999232         0.146336
 H        -2.091600        -2.441032        -1.477274
 H        -0.699912        -2.572353        -0.519767
 H        -2.795360        -0.047461        -2.580832
 H        -2.514675         1.334217        -1.430352
 H        -0.216161        -0.173479        -3.112127
 H         1.238581         1.493210        -1.951463
 H        -0.107693         2.503583        -1.904836
 H         0.404987         1.908847         0.667857
 H         1.132992        -0.145111         1.664784
