19
Iteration:  2092charge 0 multiplicity 1
 C        -1.468346        -1.916996        -0.831795
 C        -1.325094        -0.423577        -0.906690
 C        -2.050361         0.562774        -1.883266
 C        -0.592567         0.282286        -2.074627
 C         0.454764         1.163080        -1.511511
 C         0.281200         1.030997         0.046227
 O        -0.928617         0.242917         0.263415
 C         1.475277         0.247001         0.541667
 O         2.586429         0.333441        -0.014671
 H        -2.509518        -2.109446        -0.368588
 H        -1.453759        -2.553385        -1.727780
 H        -0.872966        -2.256797        -0.050502
 H        -2.887049         0.154895        -2.461308
 H        -2.393617         1.435057        -1.282843
 H        -0.372424        -0.358110        -2.873964
 H         1.471896         0.926373        -1.802748
 H         0.429217         2.322443        -1.706259
 H         0.257806         1.888657         0.601154
 H         1.506046        -0.529616         1.314972
