19
Iteration:  3798
 C        -2.279303        -1.660065        -0.805267
 C        -1.360341        -0.478545        -1.058670
 C        -1.868638         0.827590        -1.846550
 C        -0.634967         0.018429        -2.376314
 C         0.687343         0.603403        -1.888391
 C         0.423286         0.694030        -0.291275
 O        -0.532218        -0.402378         0.038620
 C         1.644435         0.495706         0.677920
 O         2.439526         1.347331         1.102454
 H        -2.302984        -1.877669         0.349690
 H        -3.306998        -1.477529        -0.975138
 H        -1.998667        -2.684330        -1.315088
 H        -2.794870         0.663998        -2.517557
 H        -1.805629         1.881517        -1.450215
 H        -0.836407        -0.427870        -3.354674
 H         1.519574        -0.249556        -2.119152
 H         0.952161         1.563047        -2.331074
 H        -0.075546         1.610948        -0.130738
 H         1.807658        -0.630460         0.863178
