19
Iteration:  3997charge 0 multiplicity 1
 C        -2.062444        -1.796609        -0.958990
 C        -1.388131        -0.463420        -1.055048
 C        -1.977599         0.657909        -1.877403
 C        -0.615455         0.099806        -2.229343
 C         0.657417         0.564821        -1.693249
 C         0.416900         0.799197        -0.175485
 O        -0.787564         0.089691         0.170475
 C         1.678689         0.305631         0.618030
 O         2.536450         1.152247         0.817471
 H        -2.820311        -1.880295        -1.654419
 H        -1.365070        -2.621813        -1.115190
 H        -2.662653        -1.943252         0.000074
 H        -2.742697         0.550500        -2.616940
 H        -2.088562         1.603901        -1.438794
 H        -0.579011        -0.496002        -3.111260
 H         1.478470        -0.084719        -1.843499
 H         1.143966         1.457381        -2.071775
 H         0.262329         1.845157         0.185346
 H         1.883957        -0.802348         0.529841
