19
Iteration:  1152charge 0 multiplicity 1
 C        -1.679363        -1.878077        -0.777199
 C        -1.273598        -0.432163        -0.944687
 C        -1.978090         0.491427        -1.786009
 C        -0.580223         0.184586        -2.100058
 C         0.341092         1.331474        -1.596296
 C         0.311138         0.976111        -0.055135
 O        -0.856641         0.268481         0.246243
 C         1.535035         0.089012         0.347258
 O         2.678338         0.448763         0.291841
 H        -2.253356        -1.942253         0.226407
 H        -2.393840        -2.242890        -1.553302
 H        -0.746254        -2.569394        -0.860378
 H        -2.834745         0.033372        -2.362754
 H        -2.313723         1.457440        -1.322836
 H        -0.418646        -0.396979        -3.019422
 H         1.310698         1.302901        -2.064878
 H        -0.152404         2.330300        -1.802112
 H         0.425835         1.848284         0.510229
 H         1.128937        -0.954065         0.779481
