19
Iteration:  4368
 C        -1.866789        -1.854681        -0.710419
 C        -1.408199        -0.386734        -1.011952
 C        -1.957123         0.724366        -1.857892
 C        -0.652014         0.057259        -2.279366
 C         0.592349         0.747794        -1.869538
 C         0.414596         0.900035        -0.313299
 O        -0.683399         0.069586         0.109150
 C         1.657203         0.332870         0.328286
 O         2.363511         0.872279         1.117143
 H        -2.184024        -2.381643        -1.530397
 H        -0.931178        -2.206154        -0.214529
 H        -2.791160        -1.888315        -0.001857
 H        -2.785716         0.510280        -2.532844
 H        -1.882592         1.699076        -1.352192
 H        -0.800481        -0.849051        -2.936992
 H         1.523718         0.252406        -2.129695
 H         0.727845         1.769876        -2.392258
 H         0.308066         2.021798         0.077131
 H         1.575816        -0.749796         0.177206
