19
Iteration:  1664charge 0 multiplicity 1
 C        -1.524624        -1.952402        -0.761783
 C        -1.196902        -0.398202        -0.909224
 C        -1.991074         0.393625        -1.831673
 C        -0.521708         0.329803        -2.147364
 C         0.290602         1.415336        -1.513423
 C         0.318606         1.163441        -0.019842
 O        -0.895708         0.252816         0.316581
 C         1.456063         0.221004         0.444524
 O         2.560759         0.119342         0.064747
 H        -1.976684        -2.053680         0.266130
 H        -2.155370        -2.305610        -1.613536
 H        -0.699179        -2.620537        -0.829581
 H        -2.665919        -0.008689        -2.582747
 H        -2.277702         1.397105        -1.462786
 H        -0.124823        -0.409218        -2.903540
 H         1.202329         1.592390        -1.955247
 H        -0.204086         2.322850        -1.684803
 H         0.093095         1.996395         0.496820
 H         1.200672        -0.455039         1.222426
