19
Iteration:  2972
 C        -1.537493        -1.918183        -0.749087
 C        -1.249126        -0.388303        -0.823805
 C        -2.049493         0.315380        -1.951023
 C        -0.462339         0.303142        -2.125483
 C         0.283585         1.470933        -1.486275
 C         0.358748         1.218788        -0.003656
 O        -0.891560         0.314068         0.350427
 C         1.458833         0.161662         0.456708
 O         2.542795         0.053269        -0.001494
 H        -2.434074        -2.338113        -0.391226
 H        -1.563234        -2.219185        -1.922381
 H        -0.685358        -2.579326        -0.417510
 H        -2.553230        -0.276690        -2.666922
 H        -2.517069         1.278935        -1.777700
 H         0.009187        -0.348413        -2.878838
 H         1.366878         1.679840        -1.784816
 H        -0.193610         2.491857        -1.613700
 H         0.356105         2.159336         0.774157
 H         1.162645        -0.206271         1.477004
