19
Iteration:  2372
 C        -1.663559        -1.903968        -0.878174
 C        -1.309373        -0.403272        -0.928403
 C        -2.039666         0.500540        -1.827784
 C        -0.527523         0.220759        -2.103792
 C         0.480239         1.193200        -1.570240
 C         0.309837         0.967731         0.066278
 O        -0.846950         0.207520         0.345399
 C         1.441360         0.222889         0.546967
 O         2.579363         0.448297         0.023532
 H        -1.863024        -2.023885         0.111997
 H        -2.552561        -2.106680        -1.545118
 H        -0.771369        -2.478114        -1.122854
 H        -2.688543         0.025069        -2.623955
 H        -2.360748         1.533898        -1.503731
 H        -0.292803        -0.374071        -2.965764
 H         1.532319         0.797922        -1.868139
 H         0.447680         2.283811        -1.921965
 H         0.131468         2.048440         0.551861
 H         1.404719        -0.287773         1.517596
