19
Iteration:  1134
 C        -1.709755        -1.946828        -0.779654
 C        -1.243861        -0.434996        -0.945314
 C        -2.181933         0.402119        -1.833748
 C        -0.594167         0.268097        -2.132570
 C         0.327691         1.327143        -1.626736
 C         0.394102         1.107561        -0.078618
 O        -0.825231         0.230140         0.320781
 C         1.541240         0.208734         0.361633
 O         2.767852         0.319563         0.342337
 H        -2.372277        -1.977140        -0.006796
 H        -2.369208        -2.223581        -1.634035
 H        -0.948266        -2.668191        -0.684334
 H        -2.847075         0.099361        -2.613327
 H        -2.397823         1.381766        -1.405776
 H        -0.246439        -0.203556        -3.043536
 H         1.502094         1.324663        -1.864645
 H        -0.069353         2.367002        -1.968323
 H         0.185606         2.066615         0.495743
 H         1.095876        -0.660096         0.735005
