19
Iteration:  2346charge 0 multiplicity 1
 C        -1.629540        -1.913306        -0.894129
 C        -1.379530        -0.407264        -0.949262
 C        -2.038600         0.529764        -1.923416
 C        -0.581252         0.172072        -2.025680
 C         0.392373         1.158431        -1.450281
 C         0.321934         0.939459         0.097876
 O        -0.967188         0.246831         0.281450
 C         1.623586         0.317171         0.531009
 O         2.672192         0.404359         0.016357
 H        -2.036474        -1.960993         0.167499
 H        -2.262796        -2.241118        -1.699618
 H        -0.562825        -2.356818        -0.991124
 H        -2.812189         0.366577        -2.639732
 H        -2.143023         1.524644        -1.493590
 H        -0.212920        -0.500709        -2.829853
 H         1.377779         0.909302        -1.859109
 H         0.331161         2.196390        -1.668887
 H         0.072397         1.961734         0.408785
 H         1.460703        -0.388459         1.396171
