19
Iteration:   641charge 0 multiplicity 1
 C        -1.489217        -1.920105        -0.757325
 C        -1.312991        -0.425909        -0.943559
 C        -2.080963         0.503103        -1.833708
 C        -0.589904         0.305304        -2.099458
 C         0.367050         1.339511        -1.512069
 C         0.298487         1.000633        -0.076286
 O        -0.873249         0.346683         0.280627
 C         1.460047         0.161290         0.504862
 O         2.622175         0.174661         0.060210
 H        -2.152979        -2.085421         0.049316
 H        -1.771372        -2.518805        -1.545781
 H        -0.495643        -2.231209        -0.508762
 H        -2.682455        -0.002020        -2.545779
 H        -2.444076         1.451454        -1.478630
 H        -0.428049        -0.319609        -2.996142
 H         1.475141         1.266155        -1.895312
 H         0.211480         2.475994        -1.684933
 H         0.268429         1.968296         0.521783
 H         1.206961        -0.429117         1.426967
