19
Iteration:  2815
 C        -1.619330        -1.852153        -0.688200
 C        -1.258186        -0.457307        -1.055658
 C        -2.090962         0.337768        -1.917291
 C        -0.648584         0.420392        -2.132600
 C         0.307892         1.377126        -1.502154
 C         0.387344         0.970477        -0.090386
 O        -0.809286         0.217850         0.229819
 C         1.505648         0.248763         0.574526
 O         2.676798         0.226474         0.146876
 H        -2.647133        -1.764133        -0.199127
 H        -1.525054        -2.565906        -1.577589
 H        -0.955323        -2.155988         0.105682
 H        -2.747709        -0.101048        -2.674062
 H        -2.571930         1.246344        -1.475285
 H        -0.288984        -0.129943        -2.973574
 H         1.334291         1.222421        -1.759797
 H        -0.090368         2.375400        -1.576266
 H         0.433506         1.984195         0.516457
 H         1.182268        -0.281118         1.509835
