19
Iteration:  3930
 C        -2.232502        -1.707622        -0.709076
 C        -1.375392        -0.459396        -1.104411
 C        -1.929540         0.666477        -1.892384
 C        -0.604001        -0.015038        -2.278422
 C         0.691593         0.766865        -1.763900
 C         0.453702         0.773133        -0.312708
 O        -0.544242        -0.162846         0.016111
 C         1.613749         0.350672         0.584540
 O         2.396538         1.167816         1.031219
 H        -3.228507        -1.394153        -0.374322
 H        -2.393362        -2.337746        -1.510326
 H        -1.762285        -2.215676         0.182818
 H        -2.776651         0.751040        -2.580014
 H        -1.859618         1.714170        -1.505019
 H        -0.468955        -0.673543        -3.188893
 H         1.595896         0.313870        -2.061219
 H         0.826185         1.700477        -2.261005
 H         0.190267         1.817563        -0.120529
 H         1.839508        -0.761604         0.588951
