19
Iteration:  2727
 C        -1.663931        -1.861891        -0.749442
 C        -1.280747        -0.469990        -1.002389
 C        -2.084302         0.528833        -1.954562
 C        -0.606279         0.225812        -2.134042
 C         0.444592         1.245806        -1.433988
 C         0.287824         0.971593         0.025163
 O        -0.928261         0.225842         0.247205
 C         1.608709         0.257258         0.517693
 O         2.693205         0.380657         0.098622
 H        -2.075997        -1.981504         0.335064
 H        -2.363504        -2.292978        -1.419051
 H        -0.827014        -2.606110        -0.714204
 H        -2.638646        -0.194837        -2.607528
 H        -2.587568         1.479648        -1.663438
 H        -0.339074        -0.225549        -3.119448
 H         1.524547         1.187030        -1.777520
 H        -0.111524         2.267425        -1.668273
 H         0.356443         1.810881         0.695304
 H         1.359702        -0.428682         1.369719
