19
Iteration:  3775charge 0 multiplicity 1
 C        -2.309578        -1.628974        -0.930532
 C        -1.341719        -0.472972        -1.067615
 C        -1.847418         0.754489        -1.780498
 C        -0.587655        -0.097527        -2.321125
 C         0.600736         0.632395        -1.742596
 C         0.459403         0.774991        -0.250145
 O        -0.436906        -0.308840         0.028309
 C         1.627534         0.444714         0.641508
 O         2.369909         1.307576         0.961281
 H        -2.718568        -1.769120         0.162616
 H        -3.238412        -1.360797        -1.481146
 H        -1.944395        -2.641428        -1.286407
 H        -2.897774         0.715406        -2.220016
 H        -1.674230         1.716383        -1.240484
 H        -0.779138        -0.841888        -3.048058
 H         1.629170         0.049540        -1.959672
 H         0.680443         1.640357        -2.126575
 H         0.203167         1.769185        -0.056562
 H         1.615414        -0.645921         1.041123
