19
Iteration:   807
 C        -1.387770        -1.882147        -0.780076
 C        -1.289504        -0.377999        -0.889952
 C        -2.125036         0.454985        -1.917956
 C        -0.623697         0.292862        -2.060033
 C         0.513534         1.259267        -1.474097
 C         0.258025         1.056144         0.037087
 O        -0.936003         0.378574         0.319177
 C         1.467265         0.135666         0.424309
 O         2.537769         0.215643         0.019538
 H        -2.046249        -2.304374        -0.032425
 H        -1.799938        -2.329243        -1.740187
 H        -0.392901        -2.326422        -0.655736
 H        -2.824660        -0.125856        -2.599278
 H        -2.451014         1.493256        -1.608324
 H        -0.229290        -0.386247        -2.774995
 H         1.510279         1.045414        -1.866643
 H         0.402109         2.228403        -1.845083
 H         0.283281         2.063404         0.583497
 H         1.161506        -0.640877         1.238464
