19
Iteration:  1287charge 0 multiplicity 1
 C        -1.601525        -1.882103        -0.748878
 C        -1.374893        -0.389472        -1.014411
 C        -2.206300         0.526620        -1.889123
 C        -0.658562         0.295402        -2.143830
 C         0.421947         1.241103        -1.546663
 C         0.347517         0.884339        -0.053041
 O        -0.854384         0.244226         0.232794
 C         1.580862         0.187258         0.572491
 O         2.755562         0.415122         0.211575
 H        -2.346144        -2.070575         0.027857
 H        -1.963464        -2.447489        -1.736565
 H        -0.661982        -2.502657        -0.525335
 H        -2.798308        -0.029828        -2.584200
 H        -2.643180         1.375337        -1.453551
 H        -0.429164        -0.302943        -3.023297
 H         1.367596         0.862857        -2.073853
 H         0.116278         2.316222        -1.843251
 H         0.372507         1.676035         0.636457
 H         1.466063        -0.292115         1.537125
