19
Iteration:  3817charge 0 multiplicity 1
 C        -2.258302        -1.735798        -0.809717
 C        -1.443913        -0.448478        -1.147354
 C        -1.932117         0.794918        -1.837086
 C        -0.686074         0.154859        -2.319508
 C         0.770398         0.442543        -1.814648
 C         0.495091         0.635149        -0.303751
 O        -0.501738        -0.255708         0.041252
 C         1.694975         0.457121         0.579198
 O         2.342029         1.365339         1.121136
 H        -2.088451        -1.943474         0.252142
 H        -3.359970        -1.548116        -0.831904
 H        -1.913943        -2.529511        -1.344100
 H        -2.831901         0.693203        -2.455216
 H        -1.947967         1.755118        -1.331617
 H        -0.568540        -0.340299        -3.252540
 H         1.418071        -0.355423        -2.132334
 H         1.168827         1.361009        -2.218918
 H         0.139496         1.653095        -0.045352
 H         1.869897        -0.601499         0.807173
