19
Iteration:  4519
 C        -2.261234        -1.727504        -1.088399
 C        -1.453391        -0.442695        -1.051272
 C        -1.937974         0.756164        -1.783311
 C        -0.654443        -0.033976        -2.209614
 C         0.628732         0.609488        -1.714368
 C         0.458654         0.672613        -0.204690
 O        -0.677363        -0.241976         0.121248
 C         1.846677         0.434319         0.631541
 O         2.540795         1.358308         0.916626
 H        -3.309009        -1.510100        -1.149034
 H        -2.051457        -2.354349        -1.914888
 H        -2.010981        -2.080534        -0.019658
 H        -2.886763         0.617732        -2.280236
 H        -1.857588         1.806150        -1.511118
 H        -0.500683        -0.557244        -3.146285
 H         1.399569        -0.081876        -2.018481
 H         0.805238         1.630219        -2.145859
 H         0.024587         1.633417         0.157586
 H         2.060638        -0.685481         0.678252
