19
Iteration:  2414
 C        -1.689915        -1.901524        -0.769331
 C        -1.347508        -0.445899        -1.034431
 C        -2.086631         0.520574        -1.857274
 C        -0.667115         0.264679        -2.163037
 C         0.287514         1.311794        -1.620440
 C         0.351960         1.013917        -0.114149
 O        -0.769914         0.097246         0.252628
 C         1.562152         0.349319         0.636141
 O         2.762462         0.290693         0.248527
 H        -2.241981        -1.893930         0.091349
 H        -2.167263        -2.612827        -1.527562
 H        -0.668199        -2.397184        -0.568666
 H        -2.943166         0.266407        -2.500497
 H        -2.266683         1.531782        -1.489815
 H        -0.416004        -0.217496        -3.085983
 H         1.331887         1.245745        -2.018482
 H         0.019207         2.347115        -1.832670
 H         0.305758         1.839808         0.593306
 H         1.251088        -0.192007         1.579496
