19
Iteration:   148charge 0 multiplicity 1
 C        -1.598687        -1.812289        -0.845597
 C        -1.382311        -0.386016        -0.980192
 C        -2.080162         0.650292        -1.765103
 C        -0.659882         0.279070        -2.186629
 C         0.466213         1.100366        -1.606128
 C         0.249634         0.987088         0.011896
 O        -0.775130         0.022334         0.284918
 C         1.540839         0.461360         0.636455
 O         2.647594         0.273466         0.083393
 H        -2.269907        -2.192441         0.057819
 H        -1.851725        -2.234768        -1.915653
 H        -0.555889        -2.308481        -0.607554
 H        -2.964358         0.195432        -2.270949
 H        -2.303464         1.577246        -1.153188
 H        -0.588576        -0.208450        -3.150051
 H         1.418107         0.562669        -1.770492
 H         0.522574         2.215398        -2.022693
 H        -0.157842         1.967915         0.350650
 H         1.370116        -0.184643         1.600311
