19
Iteration:  1379
 C        -1.715093        -1.893046        -0.762483
 C        -1.291072        -0.465482        -1.032588
 C        -2.122259         0.475357        -1.881044
 C        -0.608549         0.270530        -2.160571
 C         0.321751         1.283639        -1.531254
 C         0.350897         0.995262        -0.020288
 O        -0.776677         0.153120         0.217574
 C         1.601030         0.336360         0.577364
 O         2.726791         0.325591         0.198263
 H        -2.697984        -1.757888        -0.219139
 H        -2.006497        -2.252169        -1.709067
 H        -1.057912        -2.559346        -0.271760
 H        -2.932767        -0.046646        -2.476028
 H        -2.395593         1.396695        -1.246800
 H        -0.210595        -0.249234        -3.020897
 H         1.337443         1.207861        -2.062725
 H        -0.077355         2.343614        -1.514509
 H         0.247546         1.927472         0.329769
 H         1.167517        -0.220172         1.455384
