19
Iteration:  1766
 C        -1.433462        -1.919938        -0.756332
 C        -1.128019        -0.433483        -0.965148
 C        -2.068220         0.401624        -1.795186
 C        -0.619903         0.350008        -2.104742
 C         0.235825         1.470040        -1.533608
 C         0.334604         1.140989        -0.086110
 O        -0.845333         0.278409         0.282146
 C         1.385144         0.265668         0.462766
 O         2.598849         0.022917         0.129427
 H        -2.404913        -2.074450        -0.489005
 H        -1.489322        -2.350609        -1.766537
 H        -0.691855        -2.416147        -0.056338
 H        -2.736604        -0.093002        -2.479949
 H        -2.321562         1.416264        -1.468630
 H        -0.314263        -0.405928        -2.801805
 H         1.277985         1.306173        -1.920101
 H        -0.200381         2.411993        -1.897393
 H         0.299008         1.971501         0.498943
 H         1.059438        -0.404517         1.325433
