19
Iteration:  4592charge 0 multiplicity 1
 C        -2.200838        -1.795995        -0.992933
 C        -1.413150        -0.518197        -1.101421
 C        -1.899652         0.805229        -1.774225
 C        -0.648382         0.171992        -2.296420
 C         0.698741         0.556192        -1.668935
 C         0.458476         0.707901        -0.231049
 O        -0.638394        -0.304801         0.114699
 C         1.618424         0.546645         0.787336
 O         2.566412         1.275378         0.742393
 H        -2.994685        -1.649022        -0.074886
 H        -2.975969        -1.885921        -1.801624
 H        -1.477932        -2.612078        -0.959128
 H        -2.746948         0.561332        -2.404491
 H        -2.002928         1.835607        -1.406853
 H        -0.742779        -0.375920        -3.263653
 H         1.300083        -0.436864        -1.675289
 H         1.140225         1.426649        -2.109253
 H        -0.047415         1.659090         0.036577
 H         1.356390        -0.238400         1.480879
