19
Iteration:  2232
 C        -1.445383        -1.769439        -0.791245
 C        -1.375009        -0.320593        -0.910394
 C        -2.132108         0.463707        -1.936319
 C        -0.639911         0.280525        -2.119847
 C         0.330729         1.217443        -1.546262
 C         0.349929         0.858097         0.030398
 O        -0.974547         0.371296         0.298979
 C         1.614299        -0.038338         0.356249
 O         2.653695         0.434422         0.202427
 H        -2.155225        -2.305467         0.109750
 H        -1.700006        -2.402921        -1.715582
 H        -0.495671        -2.108543        -0.421410
 H        -2.591281        -0.172020        -2.724643
 H        -2.598112         1.410690        -1.576228
 H        -0.202439        -0.460286        -2.737790
 H         1.349085         1.089154        -1.791491
 H         0.310066         2.279431        -1.573999
 H         0.426960         1.908523         0.611364
 H         1.355407        -0.930589         0.995732
