19
Iteration:  2886charge 0 multiplicity 1
 C        -1.400752        -1.873929        -0.862173
 C        -1.287208        -0.344513        -0.880922
 C        -2.073506         0.400040        -1.807855
 C        -0.589285         0.216844        -2.114876
 C         0.458229         1.259055        -1.540078
 C         0.283795         1.105885        -0.000296
 O        -0.945096         0.417918         0.274050
 C         1.401526         0.123599         0.577356
 O         2.549990         0.222066         0.040141
 H        -1.814589        -2.240107         0.023344
 H        -1.782223        -2.273381        -1.722301
 H        -0.320619        -2.089343        -0.741829
 H        -2.741350        -0.100399        -2.489835
 H        -2.465698         1.370859        -1.504284
 H        -0.205413        -0.451363        -2.914823
 H         1.465339         0.823631        -1.830650
 H         0.285652         2.394107        -1.714432
 H         0.224679         2.006302         0.472448
 H         1.156223        -0.832120         1.131110
