19
Iteration:  1033
 C        -1.590049        -1.831931        -0.812746
 C        -1.251945        -0.414244        -0.921200
 C        -2.071095         0.449597        -1.794401
 C        -0.659405         0.225960        -2.113458
 C         0.415884         1.225384        -1.596003
 C         0.309377         1.054753        -0.014588
 O        -0.817951         0.251502         0.297122
 C         1.499683         0.140780         0.438334
 O         2.611720         0.374338         0.178253
 H        -2.336997        -1.998866        -0.092891
 H        -1.974199        -2.059760        -1.780528
 H        -0.743310        -2.538867        -0.694125
 H        -2.725543        -0.160629        -2.465717
 H        -2.411805         1.503093        -1.731895
 H        -0.372270        -0.189987        -3.073228
 H         1.480054         0.892054        -1.973146
 H         0.218324         2.375163        -1.778176
 H         0.177226         2.040123         0.631272
 H         1.164849        -0.592487         1.315713
