19
Iteration:  4398
 C        -1.869479        -1.820116        -0.833020
 C        -1.392317        -0.370976        -1.017252
 C        -2.092785         0.590917        -1.870464
 C        -0.757344         0.112751        -2.316036
 C         0.591908         0.623913        -1.834089
 C         0.433237         0.880223        -0.322059
 O        -0.718180         0.173672         0.106413
 C         1.758100         0.366695         0.405050
 O         2.488275         0.924057         1.217362
 H        -2.752874        -1.881017        -1.545818
 H        -1.103272        -2.462887        -1.193589
 H        -2.277443        -1.966692         0.229114
 H        -2.945432         0.384561        -2.508576
 H        -2.226243         1.547834        -1.363428
 H        -0.715858        -0.761411        -3.054712
 H         1.339191        -0.153407        -1.944723
 H         1.002589         1.546595        -2.291380
 H         0.400466         1.886382        -0.181358
 H         1.906118        -0.797076         0.348789
