19
Iteration:  1868
 C        -1.540012        -1.860618        -0.785089
 C        -1.238847        -0.383609        -0.910778
 C        -2.005581         0.398024        -1.834424
 C        -0.441447         0.238209        -2.067545
 C         0.345757         1.387752        -1.492917
 C         0.299080         1.066128        -0.020475
 O        -0.910430         0.268441         0.302736
 C         1.436720         0.159171         0.442413
 O         2.532030         0.247624         0.029520
 H        -2.193187        -1.934255         0.067365
 H        -1.864332        -2.442439        -1.652017
 H        -0.507040        -2.347214        -0.514142
 H        -2.708895        -0.036710        -2.605142
 H        -2.313024         1.430510        -1.608767
 H        -0.233942        -0.417296        -2.913354
 H         1.444592         1.231868        -1.813579
 H        -0.137517         2.403225        -1.811764
 H         0.196022         1.895768         0.565284
 H         1.104950        -0.615238         1.184424
