19
Iteration:  2391charge 0 multiplicity 1
 C        -1.648559        -1.869848        -0.766653
 C        -1.271574        -0.445204        -0.972134
 C        -2.063518         0.529449        -1.849273
 C        -0.615240         0.241235        -2.118642
 C         0.416577         1.209534        -1.526124
 C         0.303668         1.054987        -0.068844
 O        -0.826168         0.124735         0.229188
 C         1.495748         0.315966         0.592023
 O         2.675830         0.355298         0.125725
 H        -2.067922        -1.991719         0.207675
 H        -2.455257        -2.016408        -1.539885
 H        -0.814077        -2.604483        -1.081603
 H        -2.903132         0.143338        -2.446499
 H        -2.411814         1.451979        -1.429335
 H        -0.223502        -0.334142        -2.932146
 H         1.482543         1.141082        -1.798776
 H         0.169875         2.211547        -1.816023
 H         0.024809         1.886609         0.557328
 H         1.208792        -0.517787         1.304460
