19
Iteration:  3477
 C        -1.793083        -1.891563        -0.897164
 C        -1.327742        -0.458225        -1.041519
 C        -2.045749         0.550363        -1.859301
 C        -0.591020         0.143248        -2.161094
 C         0.516366         1.117087        -1.693942
 C         0.291389         1.119426        -0.142144
 O        -0.737531         0.004128         0.237068
 C         1.450208         0.401941         0.577597
 O         2.714449         0.514904         0.552842
 H        -1.783491        -2.182345         0.217602
 H        -2.891100        -1.897593        -1.351213
 H        -1.140415        -2.593411        -1.365125
 H        -2.938467         0.266402        -2.410709
 H        -2.170243         1.480080        -1.267349
 H        -0.664625        -0.451584        -3.045344
 H         1.552081         0.804341        -2.025910
 H         0.317227         2.114627        -2.169302
 H         0.076285         2.030113         0.206540
 H         1.024067        -0.178073         1.383584
