19
Iteration:   605
 C        -1.538757        -1.886098        -0.909977
 C        -1.226043        -0.376652        -0.933638
 C        -2.090286         0.380381        -1.739427
 C        -0.670790         0.242094        -2.163413
 C         0.301991         1.365221        -1.605530
 C         0.274440         1.120004        -0.048354
 O        -0.802745         0.386892         0.332549
 C         1.505951         0.212631         0.585752
 O         2.679916         0.091666         0.124683
 H        -2.362190        -1.952056        -0.174851
 H        -1.770141        -2.245056        -1.940908
 H        -0.726426        -2.523638        -0.428361
 H        -2.845508        -0.221426        -2.343822
 H        -2.596231         1.333083        -1.508823
 H        -0.292220        -0.355633        -2.980286
 H         1.378757         1.133217        -1.909525
 H         0.078447         2.356066        -1.872415
 H         0.326939         2.099503         0.453926
 H         1.104306        -0.486374         1.356586
