19
Iteration:   190charge 0 multiplicity 1
 C        -1.655740        -1.957112        -0.963457
 C        -1.405829        -0.422136        -0.889099
 C        -2.092892         0.517975        -1.821616
 C        -0.622436         0.317927        -2.054553
 C         0.493003         1.201715        -1.554661
 C         0.368479         1.033162        -0.054832
 O        -0.949031         0.205263         0.293487
 C         1.625946         0.415400         0.658047
 O         2.699181         0.219637         0.048905
 H        -2.096428        -2.195943         0.062928
 H        -2.243891        -2.091105        -1.960723
 H        -0.683472        -2.544401        -0.965397
 H        -2.705596        -0.184276        -2.436865
 H        -2.604335         1.403465        -1.301391
 H        -0.418050        -0.193556        -3.005343
 H         1.384990         0.953093        -1.982641
 H         0.171221         2.162773        -1.694613
 H         0.157822         1.940459         0.474017
 H         1.514349         0.150851         1.682746
