19
Iteration:   565
 C        -1.453356        -1.932792        -0.694770
 C        -1.411471        -0.387828        -1.009076
 C        -2.146544         0.622751        -1.914630
 C        -0.571969         0.305387        -2.134911
 C         0.344444         1.278201        -1.560247
 C         0.301663         0.974361         0.045222
 O        -0.867897         0.219853         0.237966
 C         1.569319         0.289250         0.627877
 O         2.634127         0.152863         0.008749
 H        -2.189244        -2.160459         0.062701
 H        -1.690112        -2.635501        -1.416040
 H        -0.517055        -2.140101        -0.221161
 H        -2.802839         0.249864        -2.650739
 H        -2.331778         1.575888        -1.528089
 H        -0.338180        -0.290847        -3.024721
 H         1.425372         1.028272        -1.789633
 H        -0.053965         2.336694        -1.842168
 H         0.143849         1.881295         0.687518
 H         1.510076        -0.120646         1.641467
