19
Iteration:  4680charge 0 multiplicity 1
 C        -1.997387        -1.828492        -0.835784
 C        -1.375787        -0.491942        -1.172073
 C        -1.903106         0.698704        -2.000988
 C        -0.552920         0.070315        -2.277734
 C         0.679971         0.722374        -1.571063
 C         0.288448         0.799653        -0.117230
 O        -0.765444        -0.011850         0.149844
 C         1.487625         0.488628         0.803075
 O         2.586817         0.994196         0.586355
 H        -1.313150        -2.747210        -0.467736
 H        -2.842023        -1.699630        -0.141710
 H        -2.470467        -2.302600        -1.736931
 H        -2.676116         0.540124        -2.732065
 H        -1.908511         1.573316        -1.410501
 H        -0.271096        -0.267053        -3.210512
 H         1.533370        -0.014627        -1.682581
 H         0.955740         1.685217        -1.990571
 H        -0.089046         1.755733         0.162299
 H         1.424576        -0.252483         1.690237
