19
Iteration:   652charge 0 multiplicity 1
 C        -1.419477        -1.835971        -0.675506
 C        -1.285764        -0.332857        -0.953079
 C        -2.105639         0.520239        -1.959814
 C        -0.632051         0.304496        -2.155217
 C         0.370002         1.298331        -1.530777
 C         0.327560         0.975391         0.047636
 O        -0.950240         0.234091         0.279456
 C         1.522590         0.140031         0.531992
 O         2.586713         0.202176         0.020225
 H        -2.021818        -2.005536         0.180638
 H        -1.719953        -2.382530        -1.504972
 H        -0.446296        -2.183888        -0.355098
 H        -2.971896         0.215504        -2.462766
 H        -2.237322         1.487175        -1.491227
 H        -0.126416        -0.293820        -2.935461
 H         1.442978         1.057431        -1.926363
 H        -0.010296         2.348846        -1.761554
 H         0.303357         1.957285         0.607146
 H         1.274009        -0.535402         1.374231
