19
Iteration:  2262charge 0 multiplicity 1
 C        -1.536509        -1.900329        -0.788599
 C        -1.283055        -0.428230        -0.953377
 C        -2.140777         0.524923        -1.868145
 C        -0.617194         0.216625        -2.095441
 C         0.309533         1.309404        -1.554073
 C         0.376392         1.021862        -0.016584
 O        -0.874374         0.327559         0.267712
 C         1.476016         0.064853         0.354344
 O         2.713336         0.364519         0.248924
 H        -2.469882        -2.167834        -0.358900
 H        -1.471662        -2.565814        -1.673699
 H        -0.810064        -2.292510        -0.051083
 H        -2.831110         0.112139        -2.608659
 H        -2.399316         1.423969        -1.281770
 H        -0.350383        -0.401851        -2.966865
 H         1.396130         1.152227        -1.826737
 H        -0.078408         2.342679        -1.736797
 H         0.368048         1.913019         0.473445
 H         1.216420        -0.806794         1.018099
