19
Iteration:   337
 C        -1.510709        -1.928768        -0.613404
 C        -1.239708        -0.420636        -0.950837
 C        -2.079249         0.510038        -1.850970
 C        -0.539034         0.335195        -2.109170
 C         0.351561         1.377821        -1.485606
 C         0.284351         0.964134        -0.041846
 O        -0.936628         0.280086         0.194732
 C         1.448506         0.163388         0.386702
 O         2.656896         0.212044         0.097601
 H        -2.276057        -1.748668         0.265951
 H        -1.967848        -2.558156        -1.426327
 H        -0.489682        -2.439080        -0.356861
 H        -2.673757         0.118976        -2.603426
 H        -2.235581         1.454111        -1.527574
 H        -0.111019        -0.192942        -2.993550
 H         1.353525         1.395383        -1.925332
 H        -0.061658         2.404045        -1.654877
 H         0.325189         1.852028         0.614099
 H         1.025993        -0.691279         1.095983
