19
Iteration:  1576
 C        -1.430652        -1.927775        -0.760385
 C        -1.283007        -0.376942        -0.965403
 C        -2.118146         0.512563        -1.864560
 C        -0.553646         0.250345        -2.085045
 C         0.422395         1.241193        -1.520514
 C         0.288408         0.980057         0.058091
 O        -0.970687         0.367082         0.342284
 C         1.444188         0.034972         0.442624
 O         2.625811         0.394947         0.032587
 H        -2.405823        -2.312791        -0.369977
 H        -1.250430        -2.429688        -1.749220
 H        -0.728202        -2.227925        -0.048629
 H        -2.869011         0.087970        -2.574111
 H        -2.398973         1.525007        -1.479510
 H        -0.330299        -0.349973        -2.992375
 H         1.412183         1.019691        -1.922429
 H         0.444628         2.261123        -1.870440
 H         0.367576         2.014593         0.619101
 H         1.040163        -0.860744         0.923753
