19
Iteration:  4133
 C        -2.088144        -1.738526        -0.992761
 C        -1.297483        -0.461331        -1.067739
 C        -1.847039         0.693641        -1.855997
 C        -0.504828         0.064616        -2.226951
 C         0.669171         0.693931        -1.560588
 C         0.269155         0.848556        -0.106612
 O        -0.677558        -0.205672         0.175876
 C         1.443743         0.730104         0.874959
 O         2.498942         0.825113         0.358333
 H        -2.537167        -2.060755        -1.979838
 H        -1.414133        -2.408707        -0.513908
 H        -2.885044        -1.655044        -0.355889
 H        -2.790089         0.397027        -2.394620
 H        -1.650783         1.766557        -1.619846
 H        -0.361903        -0.728374        -2.986965
 H         1.549644         0.050979        -1.714116
 H         1.034114         1.655926        -1.855594
 H        -0.132421         1.908481         0.323128
 H         1.319612         0.675389         1.970347
