19
Iteration:   924
 C        -1.506258        -1.922646        -0.853388
 C        -1.310772        -0.469212        -0.923694
 C        -1.964425         0.671436        -1.724807
 C        -0.522856         0.086568        -2.035777
 C         0.405057         1.244808        -1.571242
 C         0.239107         1.053998        -0.025312
 O        -0.899285         0.228322         0.304236
 C         1.416796         0.298937         0.493820
 O         2.546342         0.282008         0.011609
 H        -2.394616        -2.233367        -0.402318
 H        -1.598839        -2.227045        -1.875594
 H        -0.513186        -2.302430        -0.428285
 H        -2.747896         0.398396        -2.456632
 H        -2.035711         1.741931        -1.385654
 H        -0.424250        -0.584020        -2.841196
 H         1.517716         0.908667        -1.797355
 H         0.502047         2.277948        -2.011624
 H         0.154910         2.006165         0.558997
 H         1.103332        -0.236438         1.459839
