19
Iteration:  2198
 C        -1.533918        -1.926537        -0.702045
 C        -1.305161        -0.399640        -0.968703
 C        -2.062107         0.489695        -1.877667
 C        -0.609032         0.285278        -2.134840
 C         0.362965         1.327808        -1.490276
 C         0.298691         1.008870         0.004849
 O        -0.931027         0.310251         0.202753
 C         1.524132         0.058224         0.402447
 O         2.681732         0.348733         0.188567
 H        -1.865710        -1.940183         0.418600
 H        -2.186853        -2.419387        -1.487410
 H        -0.524149        -2.235849        -0.855617
 H        -2.645353         0.025324        -2.669010
 H        -2.588601         1.375708        -1.470558
 H        -0.173198        -0.399811        -2.874975
 H         1.335094         1.199499        -1.956024
 H         0.007051         2.338718        -1.510977
 H         0.373509         1.845251         0.751527
 H         1.152595        -0.966887         0.776029
