19
Iteration:  4024
 C        -1.922962        -1.813210        -0.908280
 C        -1.492473        -0.382794        -1.126241
 C        -1.938876         0.799481        -1.849469
 C        -0.625468         0.101081        -2.201620
 C         0.632564         0.550653        -1.686184
 C         0.358067         0.751259        -0.191233
 O        -0.767996        -0.007448         0.136055
 C         1.593778         0.371185         0.639308
 O         2.566962         1.086415         0.752649
 H        -2.092422        -2.627620        -1.728885
 H        -1.064693        -2.142200        -0.296231
 H        -2.774188        -1.853590        -0.285508
 H        -2.841953         0.711823        -2.503344
 H        -1.989787         1.833850        -1.388593
 H        -0.597075        -0.473660        -3.164633
 H         1.466667        -0.206087        -1.808777
 H         1.198901         1.412920        -2.103797
 H         0.153902         1.739326         0.107166
 H         1.504309        -0.685526         1.042079
