19
Iteration:  1642charge 0 multiplicity 1
 C        -1.529546        -1.876404        -0.747935
 C        -1.205645        -0.389196        -0.897194
 C        -2.110530         0.379946        -1.933844
 C        -0.525056         0.243744        -2.050796
 C         0.228158         1.465354        -1.505975
 C         0.307834         1.074326        -0.019245
 O        -0.830516         0.284833         0.254895
 C         1.525391         0.190456         0.439218
 O         2.608127         0.141585         0.119035
 H        -2.104580        -2.004162         0.205898
 H        -2.070202        -2.148014        -1.683984
 H        -0.679206        -2.510672        -0.710554
 H        -2.731385        -0.142038        -2.671138
 H        -2.588600         1.322497        -1.570126
 H        -0.104391        -0.135206        -3.031559
 H         1.214491         1.580032        -1.812068
 H        -0.168012         2.396756        -1.762886
 H         0.304323         1.841352         0.728499
 H         1.205689        -0.600373         1.104237
