19
Iteration:  1049
 C        -1.532275        -1.893045        -0.828680
 C        -1.290640        -0.391490        -0.908274
 C        -2.122750         0.512411        -1.840045
 C        -0.607433         0.316703        -2.126876
 C         0.464752         1.150604        -1.537297
 C         0.311710         0.992717        -0.015850
 O        -0.921212         0.286242         0.308669
 C         1.499402         0.189502         0.440762
 O         2.633867         0.402959         0.139440
 H        -2.317318        -2.100911        -0.003735
 H        -1.773287        -2.339724        -1.858207
 H        -0.694123        -2.427697        -0.401215
 H        -2.858281         0.069247        -2.467022
 H        -2.462024         1.301065        -1.211937
 H        -0.310686        -0.451976        -2.845059
 H         1.336324         0.613159        -1.703730
 H         0.553315         2.074168        -1.940341
 H         0.328116         1.948118         0.465623
 H         1.123945        -0.744338         0.781900
