19
Iteration:   644
 C        -1.480549        -1.897619        -0.731920
 C        -1.296108        -0.404069        -0.936613
 C        -2.075627         0.504020        -1.877026
 C        -0.607481         0.311612        -2.116594
 C         0.369436         1.324696        -1.510110
 C         0.306440         0.988122        -0.047494
 O        -0.893999         0.317234         0.287297
 C         1.459476         0.149967         0.517223
 O         2.623788         0.184272         0.043781
 H        -2.137863        -2.011804         0.156309
 H        -1.696898        -2.611079        -1.612753
 H        -0.458285        -2.158611        -0.533587
 H        -2.876152         0.061852        -2.533121
 H        -2.389608         1.494596        -1.478137
 H        -0.357209        -0.330820        -2.985977
 H         1.406532         1.304443        -1.892737
 H         0.247688         2.501829        -1.745549
 H         0.234785         1.978480         0.468973
 H         1.243221        -0.492006         1.475358
