19
Iteration:  2545charge 0 multiplicity 1
 C        -1.857745        -1.921852        -0.825529
 C        -1.258333        -0.438010        -0.984992
 C        -2.138059         0.462670        -1.890853
 C        -0.581374         0.208926        -2.136185
 C         0.352364         1.343030        -1.545065
 C         0.329016         0.973394        -0.008691
 O        -0.783146         0.158797         0.263506
 C         1.599185         0.234184         0.588773
 O         2.790194         0.442282         0.170219
 H        -2.311189        -2.039030         0.228084
 H        -2.793888        -2.020625        -1.605945
 H        -0.945864        -2.712021        -0.959465
 H        -2.767968        -0.041154        -2.641262
 H        -2.395983         1.524514        -1.623487
 H        -0.478069        -0.384800        -3.057637
 H         1.384955         1.319991        -1.960708
 H         0.131742         2.385438        -1.618676
 H         0.299921         1.932411         0.636090
 H         1.438563        -0.445373         1.484156
