19
Iteration:  2337
 C        -1.610659        -1.877157        -0.862100
 C        -1.438514        -0.422489        -1.008096
 C        -2.078815         0.541058        -1.908594
 C        -0.565879         0.182809        -2.091398
 C         0.384195         1.195442        -1.508912
 C         0.295385         0.968845         0.034953
 O        -0.934517         0.236403         0.341163
 C         1.578406         0.246397         0.563944
 O         2.749659         0.402546         0.037656
 H        -2.163224        -2.054939        -0.016356
 H        -2.192558        -2.417704        -1.631423
 H        -0.637508        -2.485812        -0.740716
 H        -2.801120         0.276570        -2.712410
 H        -2.286913         1.548335        -1.537759
 H        -0.085657        -0.497304        -2.788241
 H         1.477141         1.007905        -1.815990
 H         0.096466         2.248235        -1.776354
 H         0.239686         1.832814         0.939480
 H         1.543298        -0.212913         1.566254
