19
Iteration:  2470charge 0 multiplicity 1
 C        -1.578024        -1.967319        -0.892251
 C        -1.335678        -0.441699        -0.910866
 C        -2.177871         0.579435        -1.748282
 C        -0.703922         0.288279        -2.082876
 C         0.518540         1.082697        -1.640342
 C         0.283645         1.043140        -0.064996
 O        -0.848429         0.234041         0.268880
 C         1.508721         0.330488         0.542119
 O         2.746685         0.364212         0.182689
 H        -2.551996        -2.080065        -0.673181
 H        -1.451614        -2.078583        -2.034953
 H        -0.885043        -2.547063        -0.225042
 H        -2.846927         0.142841        -2.499388
 H        -2.376542         1.561423        -1.231256
 H        -0.695817        -0.340501        -2.992417
 H         1.534183         0.633769        -1.769530
 H         0.354692         2.123213        -1.979596
 H         0.166131         1.870850         0.591126
 H         1.203659        -0.349422         1.351987
