19
Iteration:  4006charge 0 multiplicity 1
 C        -1.969741        -1.809860        -0.891904
 C        -1.373873        -0.434378        -1.046891
 C        -1.974091         0.723909        -1.880975
 C        -0.662976         0.125017        -2.298007
 C         0.742151         0.558552        -1.703386
 C         0.377721         0.748250        -0.172381
 O        -0.900605         0.031996         0.196280
 C         1.667891         0.337126         0.585597
 O         2.557322         1.130720         0.803622
 H        -2.447656        -1.900156        -1.905129
 H        -1.340200        -2.644849        -0.833063
 H        -2.692874        -1.824630         0.020056
 H        -2.785115         0.628241        -2.640529
 H        -1.967591         1.682016        -1.291927
 H        -0.628332        -0.493700        -3.214106
 H         1.466609        -0.257717        -1.920302
 H         1.069519         1.523775        -2.028107
 H         0.272145         1.938649         0.097634
 H         1.862690        -0.734116         0.823550
