19
Iteration:  2691charge 0 multiplicity 1
 C        -1.623101        -1.889093        -0.735873
 C        -1.267699        -0.440346        -0.992859
 C        -2.140258         0.521418        -1.829792
 C        -0.695593         0.227471        -2.194338
 C         0.307540         1.329366        -1.595306
 C         0.399721         1.023496        -0.119735
 O        -0.725873         0.180792         0.242275
 C         1.535305         0.216409         0.502678
 O         2.693548         0.299575         0.325450
 H        -2.560812        -1.789170        -0.088732
 H        -1.965783        -2.344158        -1.699106
 H        -0.703758        -2.443154        -0.217630
 H        -2.838722        -0.027646        -2.432684
 H        -2.528711         1.478241        -1.506603
 H        -0.340019        -0.147040        -3.155395
 H         1.228093         1.481847        -2.132724
 H        -0.189610         2.240043        -1.816810
 H         0.172696         1.961975         0.507474
 H         1.069444        -0.481407         1.234860
