19
Iteration:    13
 C        -2.055068        -1.894654        -0.931902
 C        -1.368081        -0.483210        -0.996902
 C        -2.019069         0.761770        -1.573568
 C        -0.668136         0.194979        -2.122097
 C         0.636619         0.931037        -1.645093
 C         0.365984         0.880172        -0.109741
 O        -0.621411        -0.086002         0.166732
 C         1.524181         0.432115         0.688235
 O         2.633158         0.762182         0.202101
 H        -2.661283        -2.183774        -0.074180
 H        -2.653333        -2.080914        -1.917431
 H        -1.177154        -2.586138        -1.012883
 H        -2.917186         0.511579        -1.975049
 H        -2.028591         1.665307        -0.998868
 H        -0.651378        -0.285293        -3.086885
 H         1.399674         0.271286        -1.867955
 H         1.001515         1.992295        -2.212157
 H         0.103291         1.883890         0.323480
 H         1.413159        -0.382769         1.404798
