19
Iteration:  4662
 C        -2.126585        -1.773414        -0.933544
 C        -1.365903        -0.467003        -1.075051
 C        -1.911554         0.640656        -1.877218
 C        -0.501777         0.092143        -2.237523
 C         0.746149         0.709481        -1.603140
 C         0.304667         0.935668        -0.114896
 O        -0.739393        -0.196824         0.078846
 C         1.468938         0.530754         0.740852
 O         2.608317         1.020903         0.620913
 H        -1.644004        -2.234724        -0.153666
 H        -3.060887        -1.717232        -0.413349
 H        -2.157287        -2.532388        -1.776730
 H        -2.631775         0.337278        -2.658354
 H        -2.123761         1.657026        -1.504307
 H        -0.457735        -0.589128        -3.119204
 H         1.509902        -0.023791        -1.575542
 H         1.066685         1.704542        -2.064580
 H         0.018181         2.025944         0.097440
 H         1.222982        -0.335511         1.377302
