19
Iteration:  1583
 C        -1.399752        -1.908254        -0.801493
 C        -1.353158        -0.347613        -0.939814
 C        -2.079516         0.525209        -1.904259
 C        -0.575985         0.273887        -2.064910
 C         0.430989         1.217086        -1.486697
 C         0.321460         0.934742         0.058517
 O        -0.999205         0.380175         0.304237
 C         1.503900         0.098255         0.414824
 O         2.602216         0.371290         0.033061
 H        -2.437260        -2.262050        -0.261995
 H        -1.270255        -2.731197        -1.508562
 H        -0.614314        -2.025342         0.029981
 H        -2.769367        -0.036832        -2.535273
 H        -2.430202         1.380284        -1.369234
 H        -0.316952        -0.261656        -2.937645
 H         1.404940         0.764481        -1.761348
 H         0.114651         2.256393        -1.743495
 H         0.269736         1.784850         0.624521
 H         1.223869        -0.914126         0.936873
