19
Iteration:   928charge 0 multiplicity 1
 C        -1.522995        -1.910361        -0.875625
 C        -1.293864        -0.450930        -0.922278
 C        -1.945133         0.636381        -1.716278
 C        -0.522764         0.112992        -2.023797
 C         0.419030         1.232636        -1.596348
 C         0.239245         1.081448        -0.020394
 O        -0.919191         0.219098         0.325008
 C         1.374825         0.302553         0.483162
 O         2.579135         0.285793         0.001219
 H        -2.407477        -2.275025        -0.212982
 H        -1.591650        -2.350390        -1.964086
 H        -0.599081        -2.333561        -0.413483
 H        -2.744987         0.410832        -2.436229
 H        -1.890451         1.682308        -1.356549
 H        -0.393853        -0.537982        -2.927642
 H         1.443700         0.876153        -1.688099
 H         0.461730         2.196113        -1.979894
 H         0.095776         1.942113         0.562041
 H         1.084181        -0.260942         1.443617
