19
Iteration:   627charge 0 multiplicity 1
 C        -1.520174        -1.959940        -0.803712
 C        -1.253234        -0.422479        -0.884606
 C        -2.114682         0.429793        -1.768332
 C        -0.592315         0.288176        -2.027187
 C         0.376149         1.351591        -1.575495
 C         0.395393         1.097940        -0.027318
 O        -0.904046         0.363003         0.209016
 C         1.441548         0.239759         0.455401
 O         2.644340         0.121641         0.119194
 H        -2.347135        -2.150331        -0.099066
 H        -1.829617        -2.072649        -1.853875
 H        -0.668757        -2.716068        -0.627878
 H        -2.793793         0.070725        -2.588488
 H        -2.616752         1.261342        -1.284005
 H        -0.267108        -0.065420        -2.983435
 H         1.408780         1.243627        -2.008153
 H        -0.025432         2.222519        -1.943169
 H         0.438717         1.981645         0.632006
 H         1.070190        -0.344146         1.270927
