19
Iteration:  1534charge 0 multiplicity 1
 C        -1.584004        -1.898983        -0.776186
 C        -1.284196        -0.408144        -0.957774
 C        -2.160001         0.409692        -1.893260
 C        -0.613097         0.228979        -2.161404
 C         0.266690         1.388027        -1.562897
 C         0.369462         1.052615        -0.026542
 O        -0.846102         0.272174         0.280949
 C         1.562463         0.184076         0.521255
 O         2.743509         0.253732         0.201883
 H        -2.378338        -2.072371        -0.161895
 H        -1.963661        -2.340742        -1.738388
 H        -0.792266        -2.545246        -0.394098
 H        -2.893458         0.029384        -2.651278
 H        -2.350141         1.466416        -1.595593
 H        -0.178538        -0.340185        -3.034562
 H         1.307097         1.539061        -1.955545
 H        -0.310699         2.344724        -1.752520
 H         0.292587         2.008237         0.690319
 H         1.232261        -0.495802         1.341851
