19
Iteration:   599
 C        -1.517054        -1.874991        -0.868389
 C        -1.268971        -0.349006        -0.903807
 C        -2.129213         0.415043        -1.763906
 C        -0.621532         0.263688        -2.185808
 C         0.283004         1.314999        -1.598687
 C         0.300722         1.068399        -0.020783
 O        -0.798762         0.339476         0.327751
 C         1.536038         0.241958         0.539380
 O         2.644387         0.095053         0.142782
 H        -2.406647        -1.961319        -0.234384
 H        -1.679585        -2.236908        -1.878037
 H        -0.693826        -2.431655        -0.493575
 H        -2.760072        -0.211827        -2.318097
 H        -2.619143         1.354964        -1.618129
 H        -0.255817        -0.226735        -3.109046
 H         1.333187         1.257298        -1.927976
 H         0.022499         2.340425        -2.100317
 H         0.383374         2.040185         0.521938
 H         1.156885        -0.356056         1.448042
