19
Iteration:  1514
 C        -1.619321        -1.836686        -0.706394
 C        -1.324480        -0.426590        -1.022928
 C        -2.121154         0.461817        -1.968562
 C        -0.632083         0.292131        -2.116025
 C         0.215623         1.362826        -1.511286
 C         0.346089         0.931182        -0.041809
 O        -0.856190         0.214344         0.201682
 C         1.631929         0.266428         0.575779
 O         2.779100         0.247863         0.208217
 H        -2.149289        -1.937739         0.169331
 H        -2.202768        -2.315230        -1.565922
 H        -0.590655        -2.318061        -0.691844
 H        -2.649478        -0.273189        -2.557533
 H        -2.651192         1.375892        -1.677938
 H        -0.187827        -0.283149        -2.993710
 H         1.160276         1.322328        -2.023999
 H        -0.261688         2.362215        -1.472348
 H         0.358251         1.822734         0.465835
 H         1.457869        -0.281415         1.472613
