19
Iteration:  2220
 C        -1.424168        -1.825220        -0.753429
 C        -1.372041        -0.353666        -0.973374
 C        -2.162707         0.459500        -2.005429
 C        -0.638819         0.257538        -2.071319
 C         0.410147         1.258571        -1.442327
 C         0.311956         0.902988        -0.000884
 O        -0.983001         0.377968         0.316297
 C         1.554893        -0.023448         0.382720
 O         2.714711         0.432338         0.183384
 H        -2.105342        -1.901712         0.222554
 H        -1.919487        -2.301486        -1.676429
 H        -0.410813        -2.219998        -0.662959
 H        -2.850303        -0.075134        -2.675849
 H        -2.625935         1.422232        -1.665743
 H        -0.376035        -0.291486        -2.966298
 H         1.311763         0.918925        -1.900638
 H         0.103070         2.222987        -1.772527
 H         0.579438         1.666064         0.780135
 H         1.435594        -1.024833         0.884785
