19
Iteration:   903
 C        -1.512679        -1.865088        -0.846171
 C        -1.325334        -0.402806        -0.945537
 C        -2.081542         0.504530        -1.889528
 C        -0.636018         0.283089        -2.095327
 C         0.378242         1.180366        -1.554685
 C         0.366053         1.036441         0.031001
 O        -0.863010         0.230954         0.292504
 C         1.533696         0.300725         0.603321
 O         2.559495         0.228233         0.039059
 H        -2.339135        -2.171347        -0.216482
 H        -1.548588        -2.440432        -1.824768
 H        -0.551921        -2.218280        -0.242704
 H        -2.867261         0.105555        -2.571379
 H        -2.254434         1.553166        -1.487275
 H        -0.400377        -0.296704        -2.946132
 H         1.467321         1.114000        -1.933426
 H         0.300763         2.248417        -1.682805
 H         0.151491         1.946370         0.481442
 H         1.228944        -0.153387         1.667765
