19
Iteration:   851
 C        -1.494630        -1.967858        -0.720943
 C        -1.237987        -0.428117        -0.972974
 C        -2.134022         0.497021        -1.913873
 C        -0.577572         0.307421        -2.181226
 C         0.222095         1.422241        -1.569355
 C         0.394359         1.005063        -0.078843
 O        -0.854921         0.312567         0.248737
 C         1.487338         0.231548         0.612951
 O         2.673273         0.109109         0.155540
 H        -2.188317        -2.008197         0.142113
 H        -2.163713        -2.385234        -1.574162
 H        -0.608724        -2.623495        -0.569826
 H        -2.922502        -0.038679        -2.503741
 H        -2.469687         1.457250        -1.394802
 H        -0.262801        -0.228313        -3.059213
 H         1.259745         1.533406        -1.885856
 H        -0.153873         2.401206        -1.743662
 H         0.363678         1.910983         0.621344
 H         1.147319        -0.094366         1.575203
