19
Iteration:  2450
 C        -1.634731        -1.887150        -0.927014
 C        -1.347872        -0.448179        -0.957245
 C        -2.195176         0.476504        -1.765008
 C        -0.741526         0.274708        -2.165281
 C         0.350027         1.220575        -1.612825
 C         0.433721         1.024883        -0.091237
 O        -0.780597         0.203606         0.262288
 C         1.549810         0.313203         0.648532
 O         2.780166         0.318382         0.245021
 H        -2.568320        -2.089599        -0.436498
 H        -1.648017        -2.437414        -1.862092
 H        -0.925706        -2.143908        -0.196103
 H        -2.912244        -0.049703        -2.413722
 H        -2.408958         1.513707        -1.367796
 H        -0.408199        -0.249078        -3.106890
 H         1.306822         0.736975        -1.960650
 H         0.239014         2.299203        -2.045777
 H         0.143153         2.060668         0.293605
 H         1.230424        -0.203053         1.613812
