19
Iteration:  1188charge 0 multiplicity 1
 C        -1.586244        -1.807931        -0.753336
 C        -1.468580        -0.327877        -0.938274
 C        -2.103529         0.537407        -2.028340
 C        -0.642162         0.294396        -2.075446
 C         0.414396         1.152373        -1.550562
 C         0.354390         0.800141         0.096048
 O        -0.967140         0.241669         0.296338
 C         1.663389         0.058963         0.331644
 O         2.727248         0.554824         0.231089
 H        -2.035516        -1.910066         0.179227
 H        -2.040616        -2.563540        -1.487289
 H        -0.583152        -2.148394        -0.407658
 H        -2.722160        -0.128662        -2.574228
 H        -2.517304         1.468648        -1.662669
 H        -0.479780        -0.341944        -2.933461
 H         1.573408         0.967942        -1.855482
 H         0.154072         2.321819        -1.794357
 H         0.311010         1.693945         0.688713
 H         1.598412        -1.096839         0.619958
