19
Iteration:  1835
 C        -1.413581        -1.908651        -0.800882
 C        -1.322591        -0.334249        -0.910190
 C        -2.036926         0.477518        -1.899306
 C        -0.547677         0.210319        -2.029771
 C         0.397225         1.261564        -1.438046
 C         0.280223         1.039618         0.048947
 O        -1.031759         0.348867         0.266481
 C         1.513241         0.184708         0.500619
 O         2.533844         0.241041        -0.063252
 H        -1.761307        -2.206480         0.152425
 H        -2.025135        -2.476511        -1.478203
 H        -0.357162        -2.216908        -0.757602
 H        -2.429243        -0.064787        -2.783448
 H        -2.313642         1.490414        -1.602620
 H        -0.011232        -0.356773        -2.799459
 H         1.499384         1.034206        -1.700275
 H         0.294994         2.400307        -1.627215
 H         0.161473         1.887243         0.623530
 H         1.456885        -0.610098         1.248784
