19
Iteration:  3292
 C        -1.566141        -1.923167        -0.883344
 C        -1.381182        -0.424207        -0.929466
 C        -2.058542         0.524823        -1.810502
 C        -0.586306         0.212629        -2.121307
 C         0.493667         1.139149        -1.588379
 C         0.256198         1.104840        -0.117890
 O        -0.865183         0.264088         0.237662
 C         1.473729         0.213024         0.574803
 O         2.638989         0.397894         0.288372
 H        -0.933160        -2.496612        -1.634136
 H        -1.161162        -2.439765         0.106731
 H        -2.518447        -2.331748        -1.160700
 H        -2.704571         0.264314        -2.686428
 H        -2.301514         1.518488        -1.395190
 H        -0.474751        -0.423156        -3.045501
 H         1.534754         0.951635        -1.850450
 H         0.348816         2.157298        -1.954010
 H         0.062693         1.972790         0.462282
 H         1.191110        -0.438872         1.449642
