19
Iteration:  2035charge 0 multiplicity 1
 C        -1.587610        -1.881121        -0.776474
 C        -1.303878        -0.339462        -0.945945
 C        -2.118941         0.392171        -1.934546
 C        -0.654908         0.267475        -2.162978
 C         0.287042         1.391794        -1.539186
 C         0.331325         0.994653        -0.033572
 O        -0.860475         0.227383         0.252383
 C         1.577881         0.243343         0.562694
 O         2.781108         0.212693         0.197066
 H        -2.230816        -1.983637         0.198006
 H        -2.156579        -2.333945        -1.633953
 H        -0.804564        -2.548267        -0.742770
 H        -2.712849        -0.105067        -2.705658
 H        -2.476051         1.384089        -1.706637
 H        -0.282365        -0.279483        -3.116580
 H         1.271074         1.522469        -2.027878
 H        -0.308449         2.409926        -1.523450
 H         0.269461         1.808170         0.627088
 H         1.341976        -0.260032         1.590641
