19
Iteration:  2239charge 0 multiplicity 1
 C        -1.447080        -1.811484        -0.762973
 C        -1.401821        -0.297775        -0.864190
 C        -2.124203         0.448500        -1.903262
 C        -0.614516         0.313411        -2.127679
 C         0.356666         1.235343        -1.552517
 C         0.377350         0.849348         0.040414
 O        -0.960196         0.346915         0.249146
 C         1.512224        -0.005242         0.393003
 O         2.689247         0.434179         0.198478
 H        -2.203875        -2.226808        -0.215930
 H        -1.593507        -2.270385        -1.745613
 H        -0.493216        -2.248184        -0.300604
 H        -2.755530        -0.113120        -2.570816
 H        -2.421708         1.486787        -1.729978
 H        -0.332220        -0.517312        -2.827285
 H         1.422295         1.044701        -1.941628
 H        -0.010738         2.310159        -1.643991
 H         0.389539         1.754290         0.461720
 H         1.429054        -1.006269         0.872721
