19
Iteration:  2062
 C        -1.563788        -1.878786        -0.832003
 C        -1.252912        -0.398720        -0.901393
 C        -2.043974         0.477308        -1.832061
 C        -0.606959         0.219904        -2.115533
 C         0.370069         1.303259        -1.543872
 C         0.306314         1.066449        -0.033520
 O        -0.816240         0.213261         0.252887
 C         1.494631         0.259980         0.483960
 O         2.594928         0.255432         0.145341
 H        -2.449864        -1.947724        -0.247673
 H        -1.772491        -2.371244        -1.778396
 H        -0.782537        -2.616663        -0.308328
 H        -2.851752         0.056782        -2.437521
 H        -2.367053         1.422557        -1.341101
 H        -0.343391        -0.401958        -2.906345
 H         1.379792         1.408942        -2.083953
 H        -0.105758         2.333069        -1.656011
 H         0.230773         2.001439         0.634793
 H         1.171109        -0.493357         1.234021
