19
Iteration:  4647
 C        -2.163299        -1.752851        -0.986134
 C        -1.361626        -0.494083        -1.045208
 C        -1.910750         0.661175        -1.911375
 C        -0.540385         0.049932        -2.208332
 C         0.680872         0.687519        -1.661526
 C         0.278925         0.830955        -0.185213
 O        -0.588563        -0.155456         0.212855
 C         1.476198         0.565572         0.735551
 O         2.594531         1.049973         0.674055
 H        -1.904986        -2.350731         0.015317
 H        -3.176693        -1.433304        -1.177393
 H        -1.892690        -2.233084        -1.946232
 H        -2.793358         0.411444        -2.478193
 H        -1.968079         1.652583        -1.500914
 H        -0.458925        -0.460664        -3.135417
 H         1.590659         0.034132        -1.848893
 H         0.983567         1.631486        -2.083157
 H        -0.226586         1.749847        -0.080930
 H         1.249130        -0.397086         1.401133
