19
Iteration:   588charge 0 multiplicity 1
 C        -1.490107        -1.820181        -0.768781
 C        -1.286396        -0.365803        -0.887803
 C        -2.169739         0.483996        -1.893830
 C        -0.632763         0.284221        -2.105497
 C         0.328805         1.304876        -1.578061
 C         0.411356         1.053804        -0.062867
 O        -0.854159         0.213925         0.283235
 C         1.483727         0.272360         0.524534
 O         2.657579         0.109884         0.121351
 H        -2.352143        -2.266639        -0.273747
 H        -1.618744        -2.156288        -1.798010
 H        -0.611576        -2.283519        -0.369219
 H        -2.821608        -0.091201        -2.484279
 H        -2.449687         1.445395        -1.537087
 H        -0.407846        -0.298800        -3.011117
 H         1.302764         1.142744        -2.054333
 H        -0.108046         2.377446        -1.638690
 H         0.269458         1.929872         0.599730
 H         1.210739        -0.060178         1.550118
