19
Iteration:  3472
 C        -1.823493        -1.941035        -0.897097
 C        -1.338185        -0.435153        -1.021831
 C        -2.077435         0.543041        -1.889895
 C        -0.611118         0.141586        -2.196466
 C         0.532358         1.139376        -1.686518
 C         0.300089         1.065053        -0.098040
 O        -0.715375         0.043440         0.236353
 C         1.500700         0.412376         0.604587
 O         2.703265         0.518105         0.533692
 H        -1.947342        -2.060135         0.153079
 H        -2.734423        -1.970537        -1.366531
 H        -1.096397        -2.647586        -1.376517
 H        -3.057943         0.261098        -2.325851
 H        -2.124941         1.520658        -1.395237
 H        -0.402624        -0.488564        -3.121503
 H         1.542460         0.785754        -1.960125
 H         0.257272         2.085035        -2.174337
 H         0.016563         2.168313         0.314467
 H         0.962544        -0.256687         1.355677
