19
Iteration:   912charge 0 multiplicity 1
 C        -1.478045        -1.923728        -0.831094
 C        -1.345034        -0.359885        -0.887946
 C        -2.047380         0.620948        -1.843251
 C        -0.585075         0.186243        -2.071445
 C         0.439618         1.183211        -1.532425
 C         0.286130         1.020399        -0.042846
 O        -0.841254         0.233097         0.259881
 C         1.448875         0.298989         0.616005
 O         2.545626         0.255400         0.005963
 H        -2.346036        -2.297423        -0.338138
 H        -1.492929        -2.239026        -1.841493
 H        -0.620633        -2.455543        -0.364341
 H        -2.826509         0.304393        -2.532772
 H        -2.244872         1.550501        -1.307048
 H        -0.303686        -0.418849        -2.904554
 H         1.509693         1.051074        -1.872131
 H        -0.097490         2.120934        -1.827635
 H         0.193863         2.033176         0.461460
 H         1.329863        -0.295122         1.575722
