19
Iteration:  4156charge 0 multiplicity 1
 C        -2.059367        -1.885724        -0.987131
 C        -1.360644        -0.495411        -1.061956
 C        -1.813029         0.758329        -1.842906
 C        -0.466982         0.055514        -2.121013
 C         0.712046         0.679252        -1.594046
 C         0.195053         0.924071        -0.200415
 O        -0.749496        -0.062026         0.200120
 C         1.454048         0.661812         0.782998
 O         2.581078         0.815917         0.431930
 H        -2.833793        -1.806996        -1.810644
 H        -1.378289        -2.646611        -1.116934
 H        -2.548092        -2.041559        -0.125477
 H        -2.510099         0.478762        -2.658674
 H        -1.964779         1.660713        -1.210273
 H        -0.572443        -0.465549        -3.047197
 H         1.580102         0.017870        -1.534095
 H         1.062551         1.585719        -2.001316
 H        -0.328570         1.943622         0.076818
 H         1.266128         0.327927         1.805342
