19
Iteration:  2417
 C        -1.674168        -1.908201        -0.767362
 C        -1.348444        -0.465777        -1.020828
 C        -2.105906         0.531204        -1.869616
 C        -0.680448         0.283352        -2.172979
 C         0.294863         1.311853        -1.616790
 C         0.387266         0.994759        -0.146448
 O        -0.781413         0.090416         0.255642
 C         1.595812         0.352213         0.639493
 O         2.744152         0.289541         0.260544
 H        -2.279297        -1.847357         0.104507
 H        -2.125168        -2.471980        -1.602734
 H        -0.744913        -2.306414        -0.493316
 H        -2.972931         0.201042        -2.473096
 H        -2.257850         1.550836        -1.401033
 H        -0.314486        -0.278083        -3.059711
 H         1.343018         1.234321        -2.024487
 H        -0.065939         2.391184        -1.808851
 H         0.181008         1.902395         0.579845
 H         1.217075        -0.171480         1.562166
