19
Iteration:   497charge 0 multiplicity 1
 C        -1.581171        -1.833055        -0.838768
 C        -1.256846        -0.385789        -0.917701
 C        -2.065880         0.505952        -1.880269
 C        -0.507267         0.171064        -2.064883
 C         0.230014         1.332676        -1.551757
 C         0.248676         1.060984         0.014694
 O        -0.851475         0.245037         0.350835
 C         1.533821         0.266695         0.477399
 O         2.671243         0.152447         0.058203
 H        -2.224161        -2.056307        -0.042285
 H        -2.065819        -2.117497        -1.706576
 H        -0.677277        -2.420519        -0.688210
 H        -2.768869        -0.048999        -2.566768
 H        -2.282644         1.578740        -1.574797
 H         0.019878        -0.515015        -2.741080
 H         1.290937         1.181894        -2.075479
 H        -0.283674         2.282763        -1.878983
 H         0.324244         2.001438         0.615857
 H         1.339979        -0.188111         1.439704
