19
Iteration:  3889
 C        -2.125704        -1.709161        -0.902519
 C        -1.385524        -0.419333        -1.096342
 C        -1.981240         0.741484        -1.841570
 C        -0.720313        -0.006463        -2.278566
 C         0.648121         0.444136        -1.804957
 C         0.453734         0.751290        -0.267776
 O        -0.564674        -0.084696         0.055425
 C         1.721085         0.462168         0.533020
 O         2.387662         1.245755         1.161430
 H        -2.546754        -1.685432         0.073112
 H        -3.038118        -1.739989        -1.626323
 H        -1.349597        -2.591370        -1.065322
 H        -2.926421         0.720718        -2.328381
 H        -1.723067         1.662580        -1.369589
 H        -0.743514        -0.672371        -3.153047
 H         1.367367        -0.520615        -1.946710
 H         1.212159         1.364418        -2.221365
 H         0.208571         1.820430        -0.123214
 H         2.055829        -0.599311         0.413243
