19
Iteration:   797charge 0 multiplicity 1
 C        -1.399684        -1.892128        -0.760271
 C        -1.310561        -0.392290        -0.869228
 C        -2.056379         0.405181        -1.882354
 C        -0.615981         0.369836        -2.099842
 C         0.454317         1.230757        -1.466396
 C         0.358966         0.958266         0.038386
 O        -1.029413         0.434952         0.258645
 C         1.441698         0.147208         0.527461
 O         2.596745         0.245742        -0.060369
 H        -2.116973        -2.186197        -0.012666
 H        -1.692722        -2.221951        -1.792517
 H        -0.473591        -2.287235        -0.529957
 H        -2.553903        -0.104791        -2.753707
 H        -2.557638         1.372665        -1.577322
 H        -0.367288        -0.247452        -2.933584
 H         1.408587         0.821276        -1.714735
 H         0.300041         2.313923        -1.652613
 H         0.334149         1.852128         0.787087
 H         1.169313        -0.633599         1.339307
