19
Iteration:  2093
 C        -1.470659        -1.916982        -0.831904
 C        -1.322622        -0.424134        -0.905888
 C        -2.057118         0.562294        -1.887014
 C        -0.598008         0.284759        -2.077388
 C         0.456764         1.155470        -1.510390
 C         0.286005         1.024135         0.059695
 O        -0.932093         0.244598         0.254694
 C         1.487739         0.250699         0.539590
 O         2.581130         0.334577        -0.016057
 H        -2.484152        -2.092899        -0.383203
 H        -1.449520        -2.531068        -1.734572
 H        -0.840552        -2.258003        -0.008435
 H        -2.888117         0.157715        -2.475618
 H        -2.378507         1.447192        -1.288714
 H        -0.388985        -0.360747        -2.845048
 H         1.507382         0.917411        -1.762467
 H         0.390694         2.330675        -1.682194
 H         0.273816         1.888580         0.582272
 H         1.486705        -0.512413         1.320795
