19
Iteration:  2394
 C        -1.650694        -1.894213        -0.755706
 C        -1.280628        -0.444756        -0.970066
 C        -2.078250         0.552843        -1.843683
 C        -0.604546         0.229834        -2.139254
 C         0.396651         1.215600        -1.534481
 C         0.299434         1.051877        -0.037920
 O        -0.810634         0.128500         0.209537
 C         1.494758         0.307299         0.572965
 O         2.700026         0.345471         0.145573
 H        -2.030436        -1.990319         0.183899
 H        -2.427294        -1.957355        -1.556349
 H        -0.831304        -2.561174        -0.986992
 H        -2.861222         0.077461        -2.511493
 H        -2.434819         1.513850        -1.398937
 H        -0.268733        -0.321634        -3.013431
 H         1.496991         1.129396        -1.818254
 H         0.075059         2.262274        -1.854768
 H        -0.096215         1.964072         0.581969
 H         1.238796        -0.440189         1.378549
