19
Iteration:  4838charge 0 multiplicity 1
 C        -1.892964        -1.835285        -0.905167
 C        -1.279210        -0.494622        -1.017842
 C        -1.867752         0.412868        -2.043731
 C        -0.361687        -0.027305        -2.172316
 C         0.654401         0.946238        -1.620144
 C         0.270325         0.922962        -0.068005
 O        -0.970329         0.363181         0.140238
 C         1.370445         0.449374         0.778568
 O         2.564522         0.702578         0.578986
 H        -2.931471        -2.044268        -0.826701
 H        -1.575743        -2.408536        -1.865194
 H        -1.328309        -2.554555        -0.242091
 H        -2.536183        -0.045359        -2.833781
 H        -2.155478         1.474456        -1.874203
 H        -0.195743        -0.774795        -2.977569
 H         1.599546         0.508329        -1.844090
 H         0.774820         1.952239        -2.100778
 H         0.225329         1.984295         0.277884
 H         0.894416        -0.132096         1.568320
