19
Iteration:   378
 C        -1.432100        -1.784243        -0.750640
 C        -1.308930        -0.365316        -0.953488
 C        -2.152646         0.371909        -1.933186
 C        -0.627695         0.289470        -2.118845
 C         0.318283         1.349757        -1.474206
 C         0.322886         0.986892         0.031651
 O        -0.940922         0.367747         0.252728
 C         1.529752         0.110072         0.455011
 O         2.733567         0.179780         0.106573
 H        -2.098331        -1.689498         0.159878
 H        -2.019737        -2.242674        -1.499119
 H        -0.497183        -2.369768        -0.453199
 H        -2.721141        -0.375967        -2.533655
 H        -2.480148         1.439021        -1.739560
 H        -0.357527        -0.251515        -3.051635
 H         1.272853         1.155646        -1.805533
 H         0.025537         2.382951        -1.556975
 H         0.244096         1.836586         0.725564
 H         1.160283        -0.661678         1.115589
