19
Iteration:  1600charge 0 multiplicity 1
 C        -1.400442        -1.834066        -0.649149
 C        -1.360223        -0.378429        -0.952560
 C        -2.134908         0.493693        -1.939372
 C        -0.605620         0.294039        -2.059694
 C         0.393844         1.261564        -1.431079
 C         0.279558         0.892606         0.034823
 O        -1.012923         0.326993         0.198496
 C         1.562070         0.040590         0.456256
 O         2.672909         0.350401         0.021035
 H        -2.234522        -2.226810        -0.269326
 H        -1.370916        -2.166937        -1.708938
 H        -0.544285        -2.172433        -0.088021
 H        -2.650822         0.120124        -2.810950
 H        -2.474974         1.511941        -1.655119
 H        -0.300925        -0.390704        -2.905462
 H         1.395924         1.172625        -1.849973
 H         0.133426         2.320388        -1.554848
 H         0.377558         1.875589         0.721706
 H         1.294346        -0.635404         1.282798
