19
Iteration:  2688
 C        -1.598247        -1.891108        -0.723697
 C        -1.290014        -0.410958        -0.971865
 C        -2.161743         0.503536        -1.814083
 C        -0.674118         0.230651        -2.199787
 C         0.293634         1.302383        -1.608857
 C         0.381050         1.018732        -0.121356
 O        -0.713875         0.186409         0.236054
 C         1.556751         0.214473         0.493575
 O         2.688489         0.294493         0.337712
 H        -2.531061        -1.825312        -0.245338
 H        -1.943883        -2.244291        -1.778127
 H        -0.774224        -2.450098        -0.221841
 H        -2.849584         0.004948        -2.480666
 H        -2.457486         1.516055        -1.512878
 H        -0.380973        -0.136465        -3.171622
 H         1.231745         1.518598        -2.105356
 H        -0.094281         2.282111        -1.782103
 H         0.081660         2.001013         0.462485
 H         1.053254        -0.495151         1.203958
