19
Iteration:  3277
 C        -1.475908        -1.916496        -0.893970
 C        -1.260318        -0.409751        -0.929054
 C        -2.014002         0.585053        -1.876060
 C        -0.575428         0.176323        -2.092194
 C         0.449031         1.112113        -1.634734
 C         0.298773         0.973256         0.025038
 O        -0.963977         0.260065         0.317834
 C         1.436596         0.316336         0.545161
 O         2.577605         0.379750         0.218255
 H        -0.765341        -2.309075        -1.564009
 H        -1.446090        -2.230818         0.132551
 H        -2.573386        -2.037285        -1.187839
 H        -2.777614         0.126879        -2.484797
 H        -2.315626         1.525741        -1.394767
 H        -0.339218        -0.366287        -2.981114
 H         1.451268         0.791364        -1.943883
 H         0.301732         2.138845        -1.977044
 H         0.335130         2.146607         0.244239
 H         1.006679        -0.577517         1.047704
