19
Iteration:  1282
 C        -1.600358        -1.882940        -0.758646
 C        -1.377485        -0.384585        -0.976700
 C        -2.189156         0.511967        -1.899796
 C        -0.706175         0.266013        -2.140210
 C         0.418563         1.255772        -1.561606
 C         0.314172         0.949075        -0.097421
 O        -0.825201         0.211968         0.208716
 C         1.654825         0.200648         0.575336
 O         2.734359         0.384113         0.238704
 H        -2.390308        -2.079544        -0.006425
 H        -1.924883        -2.323774        -1.682817
 H        -0.717451        -2.444865        -0.399749
 H        -2.840963        -0.068371        -2.590807
 H        -2.544875         1.436761        -1.338613
 H        -0.401877        -0.189664        -3.092845
 H         1.392092         1.068294        -1.939301
 H         0.147412         2.229334        -1.806773
 H         0.258103         1.827005         0.708285
 H         1.312631        -0.495289         1.486054
