19
Iteration:  1841charge 0 multiplicity 1
 C        -1.406463        -1.919748        -0.787910
 C        -1.288094        -0.362441        -0.882356
 C        -2.002691         0.471332        -1.934320
 C        -0.529642         0.262921        -2.007567
 C         0.404812         1.252189        -1.434410
 C         0.297827         1.033637         0.054340
 O        -1.004858         0.351521         0.275615
 C         1.415392         0.189433         0.523549
 O         2.555890         0.259820        -0.090942
 H        -1.943916        -2.204342         0.189987
 H        -2.066695        -2.402642        -1.575616
 H        -0.349397        -2.418640        -0.874462
 H        -2.676488        -0.013110        -2.642320
 H        -2.167883         1.537277        -1.689057
 H        -0.218365        -0.377329        -2.862346
 H         1.363843         0.951035        -1.768422
 H         0.152779         2.230056        -1.712935
 H         0.061755         2.040489         0.635162
 H         1.329478        -0.760651         1.156029
