19
Iteration:  2263
 C        -1.536252        -1.906363        -0.786781
 C        -1.282858        -0.426148        -0.950405
 C        -2.132906         0.518516        -1.860802
 C        -0.608550         0.231477        -2.099896
 C         0.305163         1.311797        -1.557801
 C         0.376063         1.021689        -0.011735
 O        -0.874185         0.322175         0.264029
 C         1.482107         0.072561         0.350485
 O         2.709793         0.358367         0.251966
 H        -2.551094        -2.162242        -0.336376
 H        -1.465369        -2.589967        -1.687353
 H        -0.825196        -2.290803        -0.062141
 H        -2.835944         0.124838        -2.624666
 H        -2.400999         1.425191        -1.280789
 H        -0.370377        -0.400624        -2.939533
 H         1.360149         1.136706        -1.820185
 H        -0.095614         2.320779        -1.765755
 H         0.367589         1.933749         0.439837
 H         1.221085        -0.777122         1.015299
