19
Iteration:  1994
 C        -1.477678        -1.865952        -0.750015
 C        -1.328460        -0.459494        -0.929720
 C        -2.064789         0.514959        -1.906779
 C        -0.602391         0.289934        -2.172761
 C         0.401906         1.264526        -1.531624
 C         0.302340         0.992809         0.033805
 O        -0.919254         0.272254         0.240581
 C         1.478372         0.164618         0.577063
 O         2.655871         0.310697         0.080118
 H        -1.931838        -2.087282         0.289728
 H        -2.253362        -2.186301        -1.518398
 H        -0.533130        -2.393204        -0.803281
 H        -2.842723        -0.025825        -2.518817
 H        -2.483348         1.495550        -1.630450
 H        -0.380130        -0.472703        -2.967473
 H         1.460425         1.326459        -1.880386
 H         0.098263         2.350423        -1.760549
 H         0.203149         1.961778         0.649857
 H         1.368775        -0.627191         1.355159
