19
Iteration:  4214
 C        -1.895927        -1.799160        -0.820431
 C        -1.472123        -0.401882        -1.076547
 C        -2.114607         0.604126        -2.001334
 C        -0.656364         0.075429        -2.278578
 C         0.638373         0.783658        -1.743383
 C         0.457809         0.816683        -0.306142
 O        -0.747064         0.054543         0.135618
 C         1.566198         0.455933         0.749062
 O         2.674801         0.856769         0.876079
 H        -2.765423        -2.092637        -1.278314
 H        -1.249154        -2.547838        -1.209155
 H        -2.003122        -1.961294         0.295664
 H        -2.953931         0.360180        -2.641140
 H        -2.287437         1.613470        -1.614702
 H        -0.450332        -0.519026        -3.204522
 H         1.435023         0.067206        -2.005925
 H         0.837187         1.846310        -2.054941
 H         0.323421         1.985169         0.061076
 H         1.001837        -0.253448         1.399848
