19
Iteration:  2694charge 0 multiplicity 1
 C        -1.647601        -1.884944        -0.744319
 C        -1.245713        -0.464503        -1.007709
 C        -2.116021         0.529645        -1.846573
 C        -0.704758         0.236288        -2.183268
 C         0.314260         1.349153        -1.588497
 C         0.408950         1.032425        -0.109228
 O        -0.743300         0.172435         0.239956
 C         1.496792         0.219998         0.516204
 O         2.716201         0.306228         0.308870
 H        -2.505452        -1.817269         0.052984
 H        -1.951972        -2.457165        -1.577145
 H        -0.788401        -2.371266        -0.292024
 H        -2.868354        -0.074096        -2.417767
 H        -2.570419         1.460348        -1.470990
 H        -0.332965        -0.203990        -3.132289
 H         1.292690         1.386969        -2.167271
 H        -0.328740         2.302746        -1.819478
 H         0.338228         1.871064         0.513375
 H         1.094474        -0.490400         1.281380
