19
Iteration:    51charge 0 multiplicity 1
 C        -1.865912        -1.828291        -0.943173
 C        -1.379057        -0.385011        -0.957931
 C        -2.096844         0.745590        -1.760471
 C        -0.705096         0.195329        -2.188140
 C         0.479653         0.980908        -1.593685
 C         0.327857         0.859624        -0.028560
 O        -0.738511        -0.117631         0.242702
 C         1.627942         0.519892         0.692452
 O         2.757446         0.554427         0.161858
 H        -2.371361        -2.085833         0.025941
 H        -2.464500        -2.119277        -1.808068
 H        -0.917089        -2.408744        -0.981624
 H        -3.080897         0.266047        -2.103977
 H        -2.090955         1.766721        -1.324997
 H        -0.497782        -0.422644        -3.070239
 H         1.404088         0.306670        -1.779830
 H         0.627949         2.100221        -2.022854
 H        -0.099690         1.847145         0.406193
 H         1.537161         0.187329         1.729060
