19
Iteration:  4720charge 0 multiplicity 1
 C        -1.923706        -1.860309        -1.034178
 C        -1.403341        -0.413408        -0.978950
 C        -1.961642         0.568425        -2.043823
 C        -0.528803        -0.035611        -2.192417
 C         0.598752         0.750145        -1.600492
 C         0.333215         0.953468        -0.173240
 O        -0.791185         0.117873         0.193017
 C         1.460477         0.512689         0.794539
 O         2.647209         0.846336         0.656030
 H        -1.220630        -2.255642        -1.686844
 H        -1.908549        -2.234088         0.053766
 H        -2.889795        -1.952708        -1.408402
 H        -2.808633         0.274260        -2.693013
 H        -2.051585         1.621412        -1.680011
 H        -0.428976        -0.829473        -2.976824
 H         1.579364         0.234705        -1.685043
 H         0.877667         1.690985        -2.029780
 H         0.135390         2.090824        -0.054898
 H         1.127354        -0.274182         1.526121
