19
Iteration:  4190
 C        -1.914268        -1.809786        -0.942608
 C        -1.403995        -0.406203        -1.033456
 C        -2.035414         0.671542        -1.987168
 C        -0.664745         0.046732        -2.275264
 C         0.640695         0.693128        -1.752710
 C         0.317124         0.828409        -0.158120
 O        -0.724617         0.056224         0.168292
 C         1.561630         0.511971         0.927314
 O         2.678993         0.855904         0.665888
 H        -2.873387        -1.983137        -1.447448
 H        -1.315891        -2.464759        -1.442355
 H        -2.026761        -2.134772         0.024164
 H        -2.835239         0.293513        -2.663885
 H        -2.385921         1.649477        -1.662654
 H        -0.566372        -0.659210        -3.070317
 H         1.473340        -0.002218        -1.906224
 H         0.853811         1.662405        -2.145175
 H         0.225733         2.028677        -0.050322
 H         1.182011         0.083167         1.887228
