19
Iteration:  4492
 C        -2.230919        -1.736856        -0.922477
 C        -1.377231        -0.466750        -1.038788
 C        -1.977705         0.711493        -1.861445
 C        -0.642543         0.073900        -2.294111
 C         0.673918         0.662804        -1.716088
 C         0.416702         0.799835        -0.217200
 O        -0.536380        -0.227363         0.182905
 C         1.720388         0.366788         0.508937
 O         2.478678         1.252339         0.970903
 H        -3.327100        -1.395679        -1.091024
 H        -2.086421        -2.473611        -1.772428
 H        -2.255600        -2.052606         0.063877
 H        -2.769866         0.365260        -2.559807
 H        -2.312783         1.719918        -1.586032
 H        -0.563939        -0.402737        -3.278390
 H         1.480750        -0.140488        -1.880369
 H         1.022421         1.595759        -2.140309
 H        -0.108766         1.752982         0.164443
 H         1.872194        -0.802450         0.332638
