19
Iteration:   122charge 0 multiplicity 1
 C        -1.700212        -1.937928        -0.855011
 C        -1.275478        -0.477412        -0.976012
 C        -2.068841         0.705673        -1.677593
 C        -0.690900         0.261759        -2.052212
 C         0.441650         1.153278        -1.648803
 C         0.412670         1.060418        -0.112114
 O        -0.654284         0.031374         0.160945
 C         1.460730         0.374000         0.611916
 O         2.571555         0.360529         0.200760
 H        -2.526406        -1.854514        -0.217370
 H        -2.044906        -2.278283        -1.865354
 H        -1.074092        -2.680867        -0.421782
 H        -2.914021         0.280414        -2.185980
 H        -2.228905         1.546395        -1.062312
 H        -0.591906        -0.185845        -3.067576
 H         1.326398         0.800691        -2.052606
 H         0.238774         2.034755        -1.957570
 H         0.081513         1.989757         0.244257
 H         1.117340        -0.118893         1.505868
