19
Iteration:  1122
 C        -1.685851        -1.884777        -0.781982
 C        -1.316702        -0.430782        -0.917671
 C        -2.113486         0.394540        -1.873913
 C        -0.703694         0.288945        -2.101437
 C         0.313995         1.332836        -1.568728
 C         0.331402         1.077298        -0.048749
 O        -0.751704         0.241087         0.186591
 C         1.545171         0.212812         0.423388
 O         2.797165         0.306865         0.338113
 H        -2.347219        -1.992804         0.002011
 H        -2.093495        -2.226776        -1.755752
 H        -0.839430        -2.520908        -0.504151
 H        -2.833389        -0.194481        -2.465396
 H        -2.497241         1.372828        -1.529256
 H        -0.413078        -0.368544        -2.920978
 H         1.227496         0.969121        -2.236065
 H         0.096711         2.480782        -1.792760
 H         0.359023         1.994965         0.573599
 H         1.177486        -0.683100         0.858770
