19
Iteration:  3342charge 0 multiplicity 1
 C        -1.743016        -1.876448        -0.806038
 C        -1.338744        -0.403882        -1.016543
 C        -2.136687         0.491720        -1.966163
 C        -0.596005         0.236844        -2.196887
 C         0.361968         1.257182        -1.597990
 C         0.374055         0.908694        -0.074758
 O        -0.804396         0.102752         0.148124
 C         1.558831         0.359250         0.688764
 O         2.769361         0.429337         0.396599
 H        -2.044364        -2.432705        -1.658217
 H        -0.914182        -2.402707        -0.332334
 H        -2.589870        -2.000762        -0.053498
 H        -2.913093        -0.019007        -2.541911
 H        -2.443474         1.477417        -1.566690
 H        -0.278153        -0.285377        -3.107426
 H         1.352787         1.015187        -2.115380
 H         0.264328         2.358099        -1.827955
 H         0.136748         1.690546         0.632579
 H         1.238269        -0.109110         1.680909
