19
Iteration:  1185
 C        -1.583864        -1.822567        -0.759200
 C        -1.450804        -0.313184        -0.968814
 C        -2.091963         0.548920        -2.030936
 C        -0.651643         0.266827        -2.068283
 C         0.432685         1.175109        -1.538116
 C         0.357164         0.802071         0.095634
 O        -0.949583         0.244537         0.308198
 C         1.656973         0.048472         0.326814
 O         2.700085         0.557725         0.231465
 H        -2.092631        -1.918822         0.276976
 H        -2.097828        -2.568835        -1.447244
 H        -0.503996        -2.192813        -0.442205
 H        -2.769465        -0.168471        -2.555307
 H        -2.506192         1.509731        -1.614719
 H        -0.574344        -0.383535        -2.947981
 H         1.447390         1.044676        -1.840862
 H         0.145091         2.217525        -1.776975
 H         0.370831         1.726302         0.588374
 H         1.552434        -1.072674         0.632014
