19
Iteration:  3089
 C        -1.394745        -1.951348        -0.806704
 C        -1.231602        -0.361915        -0.825370
 C        -2.117379         0.381952        -1.873216
 C        -0.566541         0.292482        -2.106966
 C         0.269821         1.486709        -1.546429
 C         0.341715         1.125833        -0.028790
 O        -0.905244         0.416414         0.296631
 C         1.487830         0.188129         0.456540
 O         2.578127        -0.022682         0.097047
 H        -2.476733        -2.372998        -0.734192
 H        -0.648935        -2.390652        -1.580712
 H        -0.970135        -2.447717         0.140729
 H        -2.664640        -0.203908        -2.584700
 H        -2.556063         1.367943        -1.615091
 H        -0.037612        -0.219078        -3.008485
 H         1.211111         1.699417        -2.037854
 H        -0.349345         2.356989        -1.629668
 H         0.251581         2.028868         0.583022
 H         1.007623        -0.577099         1.130497
