19
Iteration:  4163
 C        -2.029630        -1.849102        -1.018855
 C        -1.336653        -0.505813        -1.039886
 C        -1.825507         0.722094        -1.822920
 C        -0.539119         0.061586        -2.128776
 C         0.689053         0.676841        -1.584712
 C         0.215502         0.938525        -0.165799
 O        -0.803095        -0.050625         0.159675
 C         1.435415         0.653661         0.739380
 O         2.660780         0.822156         0.487006
 H        -2.959334        -2.037861        -1.633048
 H        -1.259589        -2.714078        -1.321859
 H        -2.540877        -2.047258         0.051973
 H        -2.591782         0.624695        -2.591340
 H        -2.054612         1.731407        -1.449503
 H        -0.396650        -0.628305        -3.015236
 H         1.568176        -0.007549        -1.626503
 H         1.129261         1.594371        -2.105149
 H        -0.016368         1.958476         0.019557
 H         1.100568         0.300610         1.781844
