19
Iteration:  1451
 C        -1.595393        -1.935864        -0.866205
 C        -1.308389        -0.412259        -0.875225
 C        -2.051609         0.572523        -1.805891
 C        -0.555756         0.209980        -2.089823
 C         0.532806         1.198142        -1.584150
 C         0.288463         0.986040        -0.040897
 O        -0.900299         0.227517         0.329167
 C         1.494075         0.278150         0.514177
 O         2.561015         0.400938         0.060979
 H        -2.390251        -2.235030        -0.124659
 H        -1.790773        -2.288616        -1.930419
 H        -0.569593        -2.457224        -0.809443
 H        -2.936363         0.296754        -2.282700
 H        -2.134632         1.425501        -1.175295
 H        -0.226029        -0.634835        -2.722348
 H         1.526652         0.832613        -1.788579
 H         0.270744         2.165413        -1.945345
 H         0.095560         2.041333         0.481434
 H         0.934770        -0.470657         1.220479
