19
Iteration:   682
 C        -1.465063        -1.840779        -0.686082
 C        -1.379025        -0.345471        -0.925694
 C        -2.067288         0.507271        -2.017966
 C        -0.561606         0.310150        -2.049359
 C         0.420391         1.281898        -1.415383
 C         0.314033         0.949580         0.029220
 O        -1.005776         0.298487         0.275931
 C         1.491278         0.105276         0.494577
 O         2.622111         0.256759        -0.082185
 H        -1.993984        -2.212285         0.242326
 H        -1.740539        -2.533172        -1.488214
 H        -0.338168        -2.050791        -0.372892
 H        -2.751813        -0.018649        -2.636517
 H        -2.347937         1.482261        -1.640786
 H        -0.071646        -0.259579        -2.842729
 H         1.448429         1.091668        -1.745287
 H         0.108547         2.214184        -1.565443
 H         0.403293         1.866010         0.611199
 H         1.381808        -0.590911         1.365942
