19
Iteration:  2052
 C        -1.605530        -1.879739        -0.812825
 C        -1.259530        -0.416247        -0.996145
 C        -2.098127         0.468240        -1.861214
 C        -0.587275         0.202507        -2.120320
 C         0.259410         1.382308        -1.524473
 C         0.372987         1.041261        -0.039996
 O        -0.795716         0.248450         0.251258
 C         1.479067         0.206003         0.590090
 O         2.699541         0.252948         0.140108
 H        -2.370154        -1.971548        -0.111389
 H        -1.955626        -2.250985        -1.766263
 H        -0.627676        -2.473620        -0.428980
 H        -2.842376        -0.124463        -2.381631
 H        -2.356770         1.427041        -1.374325
 H        -0.158094        -0.342415        -2.907429
 H         1.212677         1.201789        -2.080246
 H        -0.232299         2.313731        -1.783313
 H         0.100758         2.043452         0.572703
 H         1.048623        -0.413326         1.365661
