19
Iteration:  3041charge 0 multiplicity 1
 C        -1.287317        -1.862912        -0.646771
 C        -1.282828        -0.435346        -0.972505
 C        -2.073914         0.489325        -1.954187
 C        -0.618093         0.322912        -2.044064
 C         0.368690         1.402907        -1.441655
 C         0.267545         1.094692         0.036174
 O        -0.953420         0.295778         0.251831
 C         1.452425         0.182371         0.548500
 O         2.541739         0.039757        -0.087463
 H        -2.287288        -2.251135        -0.874961
 H        -0.735487        -2.363732        -1.350454
 H        -0.975254        -2.121934         0.362195
 H        -2.582084        -0.003698        -2.860370
 H        -2.494395         1.427157        -1.516366
 H        -0.305135        -0.277816        -2.917313
 H         1.366369         1.212681        -1.904399
 H         0.080825         2.423071        -1.893550
 H         0.259544         2.106056         0.670098
 H         1.336312        -0.367683         1.532982
