19
Iteration:  1303charge 0 multiplicity 1
 C        -1.572663        -1.865093        -0.831352
 C        -1.350173        -0.390904        -0.960495
 C        -2.134987         0.487490        -1.882980
 C        -0.702163         0.308139        -2.126502
 C         0.445240         1.118950        -1.520237
 C         0.375169         0.808568        -0.030041
 O        -0.999813         0.282524         0.241132
 C         1.654378         0.202180         0.622640
 O         2.694569         0.468883         0.106091
 H        -2.068992        -1.950377         0.149367
 H        -2.145766        -2.258467        -1.545783
 H        -0.649215        -2.320880        -0.648318
 H        -2.787447         0.055420        -2.681116
 H        -2.352640         1.533900        -1.459835
 H        -0.340616        -0.201481        -3.031330
 H         1.469214         0.948426        -1.865192
 H         0.392940         2.193616        -1.541447
 H         0.406446         1.855833         0.468387
 H         1.381100        -0.422890         1.532775
