19
Iteration:  4622
 C        -2.186576        -1.767519        -1.088004
 C        -1.446014        -0.467028        -1.056714
 C        -1.855734         0.729295        -1.802983
 C        -0.644766        -0.062434        -2.236067
 C         0.604868         0.665658        -1.734651
 C         0.442799         0.744887        -0.234390
 O        -0.663778        -0.209322         0.147141
 C         1.586695         0.575384         0.886656
 O         2.638264         1.192382         0.727644
 H        -2.153659        -2.008193         0.029767
 H        -3.202478        -1.547652        -1.635532
 H        -1.667255        -2.428641        -1.744458
 H        -2.816008         0.695456        -2.363916
 H        -1.670967         1.756862        -1.370192
 H        -0.628216        -0.902464        -3.033474
 H         1.545292         0.140355        -1.992493
 H         0.762148         1.637786        -2.191628
 H        -0.119222         1.652972        -0.012385
 H         1.359565        -0.248525         1.718783
