19
Iteration:  3387
 C        -1.779258        -1.856182        -0.937403
 C        -1.321422        -0.431909        -0.954207
 C        -1.964678         0.533832        -1.838340
 C        -0.519859         0.159558        -2.117472
 C         0.556492         1.105274        -1.547490
 C         0.292113         0.968000        -0.037837
 O        -0.895049         0.118281         0.288160
 C         1.466805         0.283053         0.530493
 O         2.604208         0.610654         0.260595
 H        -2.767220        -2.035113        -1.233746
 H        -1.189293        -2.656109        -1.496277
 H        -1.793397        -2.191599         0.126000
 H        -2.796777         0.139522        -2.491994
 H        -1.967082         1.625282        -1.635906
 H        -0.141358        -0.644965        -2.808710
 H         1.643658         0.865298        -1.833217
 H         0.390514         2.162265        -1.955041
 H         0.193922         1.938258         0.263841
 H         1.320019        -0.512840         1.308485
