19
Iteration:  1141
 C        -1.706242        -1.911434        -0.795568
 C        -1.244173        -0.503510        -0.972412
 C        -2.135461         0.498060        -1.791271
 C        -0.551828         0.196933        -2.155937
 C         0.363091         1.350260        -1.614562
 C         0.352040         1.107051        -0.113648
 O        -0.858763         0.243449         0.348950
 C         1.507015         0.162041         0.358219
 O         2.755823         0.364308         0.325068
 H        -2.282449        -2.014906         0.230162
 H        -2.370710        -2.121525        -1.654131
 H        -0.876871        -2.738172        -0.644358
 H        -2.764233        -0.064515        -2.558119
 H        -2.528529         1.431983        -1.295753
 H        -0.283456        -0.345656        -3.087183
 H         1.372191         1.386660        -2.022569
 H        -0.106075         2.391398        -1.807740
 H         0.302513         1.945848         0.488780
 H         1.184758        -0.899343         0.785724
