19
Iteration:  3884charge 0 multiplicity 1
 C        -2.129081        -1.747187        -0.945498
 C        -1.401359        -0.379605        -1.061713
 C        -1.945253         0.758883        -1.847586
 C        -0.728550        -0.029012        -2.243799
 C         0.664317         0.404520        -1.817103
 C         0.455615         0.789630        -0.226103
 O        -0.571445        -0.099463         0.029806
 C         1.737248         0.483198         0.507994
 O         2.383162         1.247204         1.173205
 H        -2.494451        -1.920306         0.128820
 H        -2.969940        -1.731193        -1.556772
 H        -1.447591        -2.493777        -1.174459
 H        -2.953475         0.842469        -2.331924
 H        -1.768155         1.731952        -1.304908
 H        -0.858384        -0.714607        -3.086381
 H         1.336783        -0.361366        -1.915411
 H         1.089925         1.151866        -2.438000
 H         0.258073         1.875368        -0.191179
 H         1.992848        -0.604255         0.445634
