19
Iteration:  2268charge 0 multiplicity 1
 C        -1.562306        -1.946859        -0.773437
 C        -1.289955        -0.408818        -0.937095
 C        -2.083187         0.475990        -1.820817
 C        -0.583976         0.314410        -2.112234
 C         0.288178         1.316008        -1.568678
 C         0.350405         1.004228        -0.017615
 O        -0.875909         0.288253         0.244800
 C         1.541835         0.132312         0.349986
 O         2.680700         0.322494         0.262183
 H        -2.687019        -2.045933        -0.342961
 H        -1.438448        -2.542139        -1.673188
 H        -0.825670        -2.339012        -0.034415
 H        -2.794631         0.201207        -2.593679
 H        -2.392061         1.402459        -1.357750
 H        -0.404392        -0.417225        -2.921525
 H         1.302486         1.135079        -1.942054
 H        -0.123578         2.262353        -1.913445
 H         0.396079         2.134730         0.448575
 H         1.166781        -0.722691         0.970445
