19
Iteration:  4349
 C        -1.936748        -1.736974        -0.672527
 C        -1.274094        -0.413688        -0.984888
 C        -1.980113         0.622527        -1.854704
 C        -0.658005        -0.009622        -2.297122
 C         0.561483         0.871852        -1.881367
 C         0.431312         0.894912        -0.310422
 O        -0.615312         0.034197         0.121852
 C         1.555391         0.264996         0.408139
 O         2.332968         0.865980         1.052554
 H        -1.886110        -2.334702        -1.578692
 H        -1.233334        -2.184523         0.099234
 H        -2.940588        -1.529731        -0.424554
 H        -2.943365         0.363956        -2.335842
 H        -1.928897         1.684571        -1.563593
 H        -0.477724        -0.323809        -3.273752
 H         1.538704         0.343520        -2.158461
 H         0.651543         1.880062        -2.321265
 H         0.475304         2.062341        -0.062981
 H         1.871567        -0.800854         0.161800
