19
Iteration:  1221charge 0 multiplicity 1
 C        -1.651549        -1.892967        -0.836939
 C        -1.332149        -0.437644        -0.922728
 C        -2.161609         0.515795        -1.858545
 C        -0.651281         0.228902        -2.109646
 C         0.378474         1.199761        -1.584210
 C         0.394996         0.922583         0.012513
 O        -0.876332         0.339338         0.243550
 C         1.604404         0.088910         0.399277
 O         2.726439         0.498886         0.274552
 H        -2.518386        -1.915593        -0.232119
 H        -1.774307        -2.513571        -1.796338
 H        -0.832744        -2.377887        -0.238809
 H        -2.923910         0.074603        -2.457508
 H        -2.538991         1.396629        -1.389174
 H        -0.267043        -0.272481        -2.974419
 H         1.474286         1.149352        -2.031664
 H        -0.049402         2.294933        -1.687491
 H         0.477077         1.721868         0.682772
 H         1.383459        -0.978655         0.831182
