19
Iteration:  3366
 C        -1.789621        -1.853163        -0.857927
 C        -1.306863        -0.441403        -0.991011
 C        -2.001622         0.546818        -1.922053
 C        -0.552392         0.103028        -2.169974
 C         0.374574         1.189319        -1.598982
 C         0.294699         0.988509        -0.021530
 O        -0.785100         0.134908         0.247048
 C         1.507533         0.330893         0.621243
 O         2.705438         0.500279         0.345848
 H        -2.529947        -2.059562        -1.594497
 H        -0.928628        -2.600537        -1.150956
 H        -2.179995        -2.269300         0.092787
 H        -2.714642         0.118633        -2.674859
 H        -2.289462         1.485995        -1.413315
 H        -0.416337        -0.405326        -3.163853
 H         1.459638         0.995734        -1.886752
 H         0.170090         2.178242        -2.051686
 H         0.140893         1.990934         0.469171
 H         1.258756        -0.476609         1.369273
