19
Iteration:  3313charge 0 multiplicity 1
 C        -1.623221        -1.912243        -0.844825
 C        -1.277864        -0.371043        -1.017347
 C        -2.168962         0.509644        -1.909165
 C        -0.636646         0.263819        -2.200168
 C         0.414361         1.167818        -1.601948
 C         0.382557         0.958013        -0.049541
 O        -0.859275         0.189159         0.196338
 C         1.542697         0.339950         0.655479
 O         2.699202         0.386434         0.360646
 H        -1.354781        -2.748360        -1.525081
 H        -1.108499        -2.300302         0.157952
 H        -2.698313        -2.053573        -0.743638
 H        -2.944433         0.060738        -2.573878
 H        -2.427114         1.431238        -1.355985
 H        -0.317165        -0.241148        -3.153425
 H         1.333144         0.848701        -2.120244
 H         0.252758         2.195786        -1.795897
 H         0.020075         1.910173         0.503278
 H         1.220666        -0.294875         1.497354
