19
Iteration:  3631charge 0 multiplicity 1
 C        -2.113572        -1.718490        -0.906584
 C        -1.333736        -0.514334        -1.107895
 C        -2.060065         0.602411        -1.868582
 C        -0.604081         0.122178        -2.276492
 C         0.612030         0.905424        -1.666101
 C         0.392390         0.804437        -0.152479
 O        -0.558501        -0.233996         0.074548
 C         1.470538         0.622808         0.838239
 O         2.673638         0.842621         0.653347
 H        -2.596462        -2.125219        -1.763710
 H        -1.459167        -2.540723        -0.721633
 H        -2.736179        -1.642163        -0.083713
 H        -2.935522         0.375114        -2.447249
 H        -2.209637         1.586089        -1.499002
 H        -0.454143        -0.253123        -3.304150
 H         1.395663         0.199807        -2.084038
 H         0.802712         1.967554        -1.958658
 H        -0.133105         1.746105         0.169745
 H         1.144074         0.537861         1.923991
