19
Iteration:   653charge 0 multiplicity 1
 C        -1.405115        -1.824764        -0.667278
 C        -1.289226        -0.328301        -0.958690
 C        -2.108201         0.524510        -1.963311
 C        -0.630370         0.301415        -2.157721
 C         0.370587         1.290420        -1.532396
 C         0.327877         0.975197         0.056369
 O        -0.953805         0.227121         0.277581
 C         1.527146         0.142169         0.532019
 O         2.584979         0.203906         0.016680
 H        -2.027536        -2.017240         0.181479
 H        -1.755631        -2.368863        -1.523275
 H        -0.467783        -2.191812        -0.332094
 H        -2.982375         0.205717        -2.485405
 H        -2.230681         1.501334        -1.489621
 H        -0.114852        -0.298080        -2.934968
 H         1.429698         1.028462        -1.922179
 H        -0.049265         2.370857        -1.758895
 H         0.315905         1.947324         0.644943
 H         1.268565        -0.560370         1.385866
