19
Iteration:  4413
 C        -1.937212        -1.742380        -0.929646
 C        -1.380111        -0.383421        -1.030745
 C        -2.195230         0.609375        -1.818335
 C        -0.717228         0.065416        -2.255429
 C         0.665230         0.614128        -1.896252
 C         0.570331         0.884353        -0.295305
 O        -0.691937         0.134304         0.122191
 C         1.670918         0.295394         0.503510
 O         2.473269         1.004503         1.176112
 H        -2.908889        -1.944846        -1.208818
 H        -1.181771        -2.494660        -1.319305
 H        -1.897902        -1.996505         0.156046
 H        -2.914887        -0.043369        -2.303905
 H        -2.392648         1.672697        -1.663589
 H        -0.766050        -0.493191        -3.156305
 H         1.360434        -0.172673        -2.208372
 H         1.030500         1.496720        -2.507467
 H         0.266962         1.899718         0.069689
 H         1.789045        -0.749941         0.258144
