19
Iteration:  2164charge 0 multiplicity 1
 C        -1.598219        -1.851985        -0.766337
 C        -1.210373        -0.432052        -0.934893
 C        -2.034556         0.433380        -1.837813
 C        -0.570170         0.287668        -2.157788
 C         0.286868         1.416999        -1.529318
 C         0.335900         1.067582        -0.059291
 O        -0.810689         0.232250         0.268028
 C         1.430980         0.156802         0.460320
 O         2.642596         0.254680         0.184785
 H        -2.112375        -2.149849         0.159164
 H        -2.256412        -2.264853        -1.566632
 H        -0.674068        -2.521471        -0.711434
 H        -2.721852        -0.146466        -2.429287
 H        -2.363755         1.412933        -1.496774
 H        -0.251825        -0.539178        -2.874146
 H         1.232830         1.511013        -2.115217
 H        -0.239104         2.316807        -1.800839
 H         0.227069         1.900210         0.642200
 H         1.173648        -0.762364         1.040149
