19
Iteration:  3137charge 0 multiplicity 1
 C        -1.354584        -1.909642        -0.667580
 C        -1.383014        -0.394200        -0.973401
 C        -2.034001         0.443027        -1.956644
 C        -0.566964         0.357334        -2.129848
 C         0.426773         1.326132        -1.438180
 C         0.303148         0.971314         0.073737
 O        -0.979423         0.394306         0.236671
 C         1.443910         0.069314         0.538535
 O         2.528333         0.239227        -0.066867
 H        -2.057551        -1.980264         0.177257
 H        -1.578885        -2.667758        -1.658631
 H        -0.348273        -2.235349        -0.205383
 H        -2.688247        -0.157832        -2.613099
 H        -2.454872         1.342419        -1.544419
 H        -0.318450        -0.162079        -3.013013
 H         1.498796         1.188780        -1.701566
 H         0.261344         2.425120        -1.482727
 H         0.410884         1.817238         0.687508
 H         1.459846        -0.577232         1.455504
