19
Iteration:  1225
 C        -1.652984        -1.912235        -0.835423
 C        -1.318092        -0.423462        -0.926842
 C        -2.131641         0.502584        -1.795784
 C        -0.639986         0.231501        -2.108610
 C         0.363402         1.226732        -1.623685
 C         0.407842         0.923199        -0.024997
 O        -0.865568         0.320754         0.243851
 C         1.603047         0.112244         0.420531
 O         2.688311         0.477425         0.280886
 H        -2.640738        -1.996505        -0.301771
 H        -1.784937        -2.370845        -1.748690
 H        -0.896498        -2.342383        -0.266440
 H        -2.840489         0.074006        -2.549295
 H        -2.473392         1.449052        -1.354320
 H        -0.190421        -0.308841        -2.969083
 H         1.318441         1.201274        -2.173607
 H        -0.026633         2.226575        -1.700371
 H         0.505526         1.795987         0.783714
 H         1.294145        -0.933174         0.815822
