19
Iteration:  1926charge 0 multiplicity 1
 C        -1.526282        -1.842347        -0.722625
 C        -1.279989        -0.341955        -0.919796
 C        -2.139391         0.412497        -1.988538
 C        -0.596325         0.276662        -2.125581
 C         0.290202         1.365429        -1.466182
 C         0.321922         0.930450         0.006066
 O        -0.910222         0.282322         0.220244
 C         1.615093         0.176707         0.526544
 O         2.702340         0.242747         0.099957
 H        -2.618202        -2.231953        -0.445523
 H        -1.486250        -2.272539        -1.752633
 H        -0.907086        -2.208274        -0.000770
 H        -2.651024        -0.227523        -2.660388
 H        -2.589006         1.319754        -1.535159
 H        -0.369142        -0.476279        -2.925694
 H         1.285290         1.511222        -1.852964
 H        -0.164619         2.407910        -1.721456
 H         0.405723         1.781225         0.722229
 H         1.206226        -0.249190         1.515765
