19
Iteration:  3754charge 0 multiplicity 1
 C        -2.286102        -1.664393        -1.016006
 C        -1.417975        -0.510376        -1.016369
 C        -1.824316         0.715011        -1.774290
 C        -0.577958         0.056184        -2.201489
 C         0.699305         0.637382        -1.824265
 C         0.388910         0.681404        -0.201056
 O        -0.607993        -0.285871         0.181678
 C         1.660871         0.483315         0.569123
 O         2.446743         1.303724         0.892921
 H        -2.959805        -1.628368        -0.050697
 H        -2.834027        -1.765742        -1.941546
 H        -1.678346        -2.671251        -0.991605
 H        -2.782961         0.472651        -2.340682
 H        -1.625853         1.782279        -1.525850
 H        -0.661875        -0.403002        -3.161808
 H         1.605421        -0.127855        -2.023444
 H         0.888624         1.649819        -2.164008
 H         0.105425         1.701218        -0.105815
 H         1.821475        -0.579139         0.899947
