19
Iteration:  1842
 C        -1.409371        -1.919485        -0.781392
 C        -1.284318        -0.374013        -0.880008
 C        -1.996658         0.470723        -1.941252
 C        -0.525273         0.271590        -2.005725
 C         0.404775         1.250617        -1.433713
 C         0.294565         1.036506         0.060911
 O        -0.997673         0.352146         0.278991
 C         1.407141         0.186320         0.523869
 O         2.556273         0.263819        -0.093233
 H        -1.949388        -2.188269         0.165427
 H        -2.062595        -2.371185        -1.600663
 H        -0.331841        -2.464469        -0.891662
 H        -2.734792         0.000987        -2.618979
 H        -2.170165         1.548488        -1.700344
 H        -0.250870        -0.392296        -2.877457
 H         1.387916         0.941138        -1.796028
 H         0.120319         2.230464        -1.743901
 H         0.084001         2.021619         0.615481
 H         1.275729        -0.757373         1.151531
