19
Iteration:  3210
 C        -1.659473        -1.823786        -0.695725
 C        -1.290335        -0.421071        -1.032041
 C        -2.033741         0.373966        -1.955327
 C        -0.484768         0.248527        -2.157547
 C         0.290263         1.400742        -1.458994
 C         0.307956         1.023499        -0.005000
 O        -0.889789         0.241275         0.235457
 C         1.522964         0.233856         0.571148
 O         2.706023         0.236057         0.129992
 H        -0.870322        -2.170240        -0.056090
 H        -2.626890        -2.071502        -0.463696
 H        -1.507629        -2.374028        -1.657132
 H        -2.645407        -0.251172        -2.593169
 H        -2.429974         1.306007        -1.659660
 H        -0.141677        -0.183876        -3.075319
 H         1.307791         1.563425        -1.853755
 H        -0.323452         2.292344        -1.557688
 H         0.124854         1.873088         0.760309
 H         1.227479        -0.566558         1.298249
