19
Iteration:  4004
 C        -1.991009        -1.804736        -0.891655
 C        -1.369066        -0.442487        -1.050598
 C        -1.969902         0.695847        -1.880798
 C        -0.658266         0.126625        -2.280537
 C         0.713523         0.552443        -1.702652
 C         0.386268         0.766629        -0.182973
 O        -0.878638         0.047112         0.195501
 C         1.677840         0.333339         0.606318
 O         2.547262         1.132430         0.803527
 H        -2.575094        -1.889310        -1.950727
 H        -1.358712        -2.664739        -0.944228
 H        -2.668428        -1.854357        -0.009048
 H        -2.799740         0.649153        -2.670745
 H        -2.022000         1.720042        -1.304523
 H        -0.605668        -0.518127        -3.218468
 H         1.553130        -0.224337        -1.930841
 H         1.132376         1.525097        -2.021427
 H         0.282345         1.908612         0.160700
 H         1.892842        -0.751898         0.712726
