19
Iteration:   427
 C        -1.470739        -1.830491        -0.761565
 C        -1.244443        -0.372645        -0.921175
 C        -2.085213         0.480870        -1.792614
 C        -0.533808         0.259148        -2.120488
 C         0.372739         1.224133        -1.523309
 C         0.292551         1.041734        -0.011420
 O        -0.907794         0.355199         0.290681
 C         1.438006         0.112912         0.427954
 O         2.567947         0.245153         0.040705
 H        -2.413118        -2.244176        -0.219509
 H        -1.445160        -2.230220        -1.872420
 H        -0.550984        -2.203544        -0.234216
 H        -2.741577        -0.125282        -2.398714
 H        -2.279427         1.437900        -1.326127
 H        -0.299706        -0.387905        -2.941862
 H         1.518015         1.027805        -1.720731
 H         0.066253         2.251859        -1.781735
 H         0.308457         1.960078         0.624095
 H         1.044579        -0.590967         1.186101
