19
Iteration:  3133
 C        -1.343029        -1.911872        -0.633386
 C        -1.355038        -0.380959        -1.001784
 C        -2.055123         0.463321        -1.941774
 C        -0.564249         0.394765        -2.134303
 C         0.432134         1.315985        -1.461691
 C         0.311681         0.953745         0.060386
 O        -0.993277         0.364994         0.236855
 C         1.438228         0.082366         0.539379
 O         2.534666         0.220287        -0.059052
 H        -2.186047        -2.100369         0.099503
 H        -1.477764        -2.506201        -1.574292
 H        -0.354297        -2.149151        -0.122527
 H        -2.601714        -0.212982        -2.566451
 H        -2.558348         1.365136        -1.610797
 H        -0.323702        -0.300643        -2.988533
 H         1.469501         1.351100        -1.781215
 H         0.171508         2.355958        -1.423022
 H         0.411514         1.875458         0.729093
 H         1.403750        -0.563692         1.448557
