19
Iteration:   359charge 0 multiplicity 1
 C        -1.544111        -1.865847        -0.577093
 C        -1.236788        -0.429923        -0.994727
 C        -2.166684         0.385461        -1.945272
 C        -0.618677         0.437619        -2.169914
 C         0.385723         1.423807        -1.500219
 C         0.384570         0.974378         0.015502
 O        -0.887803         0.320670         0.196090
 C         1.490242         0.005631         0.517810
 O         2.631121         0.249166         0.081477
 H        -2.208833        -1.791563         0.421059
 H        -2.036274        -2.369383        -1.466688
 H        -0.480798        -2.361944        -0.578031
 H        -2.557873        -0.202094        -2.694297
 H        -2.710812         1.007724        -1.406920
 H        -0.214096        -0.100045        -3.060943
 H         1.371278         1.357602        -1.960422
 H         0.052546         2.473057        -1.644233
 H         0.403987         1.902236         0.600258
 H         1.159642        -0.719937         1.379009
