19
Iteration:  1088charge 0 multiplicity 1
 C        -1.459042        -1.832233        -0.735372
 C        -1.394521        -0.398490        -0.989045
 C        -2.129383         0.564428        -1.892231
 C        -0.748399         0.272775        -2.172055
 C         0.349962         1.190525        -1.589612
 C         0.383765         0.770263        -0.062879
 O        -0.924465         0.307600         0.273034
 C         1.596464         0.100948         0.506992
 O         2.702642         0.448043         0.232019
 H        -2.342958        -2.075176        -0.218755
 H        -1.564626        -2.456631        -1.614846
 H        -0.501453        -2.075864        -0.190431
 H        -3.013308         0.261174        -2.525712
 H        -2.234486         1.549682        -1.367142
 H        -0.346963        -0.444905        -2.910620
 H         1.339647         1.079551        -2.271170
 H         0.219214         2.396619        -1.505316
 H         0.421708         1.751616         0.592772
 H         1.385792        -0.606918         1.329001
