19
Iteration:  4822
 C        -1.858853        -1.930821        -0.949755
 C        -1.315562        -0.450306        -0.984990
 C        -1.886041         0.397729        -2.113610
 C        -0.457989         0.023988        -2.166412
 C         0.700133         0.906339        -1.645425
 C         0.317758         1.095301        -0.130248
 O        -0.966953         0.289296         0.182406
 C         1.408946         0.412009         0.806654
 O         2.550581         0.694631         0.604325
 H        -2.912827        -1.514565        -1.100724
 H        -1.388089        -2.538002        -1.681297
 H        -1.724708        -2.350942         0.053159
 H        -2.589576        -0.066951        -2.750495
 H        -2.167283         1.369819        -1.752410
 H        -0.075384        -0.699002        -2.879534
 H         1.720120         0.397697        -1.713543
 H         0.595679         1.868045        -2.128375
 H         0.139572         2.217112         0.125667
 H         1.164644        -0.377958         1.648235
