19
Iteration:  3512charge 0 multiplicity 1
 C        -1.740391        -1.909334        -0.902236
 C        -1.343561        -0.449821        -1.080244
 C        -2.099410         0.647273        -1.857451
 C        -0.694798         0.185806        -2.275419
 C         0.581565         0.975074        -1.665610
 C         0.387727         1.013190        -0.101424
 O        -0.776461         0.029886         0.173069
 C         1.474854         0.421091         0.814844
 O         2.641208         0.591671         0.437640
 H        -1.142205        -2.395758         0.052692
 H        -2.817576        -2.194948        -0.642623
 H        -1.540511        -2.564426        -1.831874
 H        -3.028092         0.433372        -2.368089
 H        -2.168894         1.516409        -1.266205
 H        -0.609515        -0.473800        -3.138297
 H         1.511802         0.496472        -1.901049
 H         0.695874         2.034129        -1.791985
 H         0.212330         1.932997         0.264418
 H         1.266745         0.160371         1.852574
