19
Iteration:   446
 C        -1.498044        -1.870569        -0.708289
 C        -1.256804        -0.420923        -0.942319
 C        -2.161142         0.431158        -1.907265
 C        -0.630717         0.359399        -2.085230
 C         0.508401         1.351220        -1.505779
 C         0.303148         1.046400         0.015023
 O        -0.949999         0.268795         0.235540
 C         1.535913         0.190271         0.498387
 O         2.620693         0.206089         0.022303
 H        -2.472283        -1.942378        -0.065995
 H        -1.731046        -2.508405        -1.587548
 H        -0.869668        -2.344031         0.114051
 H        -2.693763        -0.089541        -2.643744
 H        -2.601838         1.237381        -1.476974
 H        -0.391865        -0.154179        -3.037423
 H         1.331490         0.913929        -1.799904
 H         0.392540         2.392052        -1.745692
 H         0.330790         1.944864         0.634801
 H         1.368360        -0.603722         1.290579
