19
Iteration:  2336
 C        -1.608653        -1.872824        -0.860934
 C        -1.437903        -0.422088        -1.010580
 C        -2.086379         0.545571        -1.912394
 C        -0.565675         0.186813        -2.097796
 C         0.387401         1.205344        -1.513089
 C         0.289357         0.972603         0.028188
 O        -0.931083         0.232375         0.344421
 C         1.579513         0.239613         0.567902
 O         2.752732         0.401829         0.041386
 H        -2.215564        -2.108332         0.012601
 H        -2.178304        -2.411586        -1.609194
 H        -0.636085        -2.500580        -0.705051
 H        -2.777818         0.234407        -2.695623
 H        -2.287140         1.546021        -1.533065
 H        -0.093273        -0.507837        -2.812229
 H         1.461571         1.020975        -1.798377
 H         0.064081         2.214575        -1.787934
 H         0.285274         1.794658         0.941088
 H         1.540529        -0.201645         1.583791
