19
Iteration:  2259charge 0 multiplicity 1
 C        -1.524396        -1.884328        -0.791881
 C        -1.288592        -0.429336        -0.959418
 C        -2.154595         0.537405        -1.884344
 C        -0.641462         0.181060        -2.086243
 C         0.329350         1.301961        -1.542999
 C         0.369277         1.008671        -0.039842
 O        -0.877146         0.339832         0.276078
 C         1.479914         0.050276         0.371611
 O         2.710660         0.377886         0.239835
 H        -2.397133        -2.191361        -0.352104
 H        -1.469407        -2.475397        -1.666732
 H        -0.769281        -2.290590        -0.047089
 H        -2.834505         0.073758        -2.561888
 H        -2.395810         1.419281        -1.317461
 H        -0.303110        -0.377036        -3.014168
 H         1.428746         1.225342        -1.870972
 H        -0.005686         2.361838        -1.665186
 H         0.387909         1.947647         0.645425
 H         1.192203        -0.874095         0.982654
