19
Iteration:  4105
 C        -2.232012        -1.783568        -0.999973
 C        -1.429552        -0.483057        -1.082140
 C        -1.912013         0.681579        -1.938606
 C        -0.546740         0.075545        -2.217492
 C         0.639380         0.733373        -1.605887
 C         0.327249         0.887879        -0.140578
 O        -0.627590        -0.298056         0.197269
 C         1.512161         0.822604         0.826531
 O         2.721582         0.838591         0.538829
 H        -2.096057        -2.327329        -1.947903
 H        -1.743822        -2.333251        -0.153429
 H        -3.381909        -1.669294        -0.686730
 H        -2.663093         0.346374        -2.636897
 H        -1.856170         1.677372        -1.568818
 H        -0.458334        -0.436361        -3.144002
 H         1.591090         0.220300        -1.811586
 H         0.694279         1.820743        -1.876317
 H        -0.146459         1.709691         0.226556
 H         1.274293         0.614031         1.917978
