19
Iteration:  1274
 C        -1.616193        -1.862628        -0.766483
 C        -1.350084        -0.425247        -0.930910
 C        -2.157200         0.489712        -1.869606
 C        -0.713564         0.256723        -2.148206
 C         0.360180         1.257433        -1.598546
 C         0.333916         1.044817        -0.062466
 O        -0.814090         0.157714         0.181799
 C         1.572282         0.213797         0.590073
 O         2.802644         0.350210         0.253866
 H        -2.466836        -2.004806        -0.096865
 H        -1.918233        -2.323376        -1.830358
 H        -0.648164        -2.295153        -0.255566
 H        -2.934641         0.102708        -2.514316
 H        -2.429577         1.464526        -1.479041
 H        -0.467399        -0.211233        -3.084092
 H         1.397078         1.197675        -1.859832
 H         0.148189         2.319529        -1.777883
 H         0.150888         2.042621         0.375951
 H         1.211774        -0.632189         1.176938
