19
Iteration:  4240
 C        -1.906102        -1.796912        -0.752070
 C        -1.325724        -0.488299        -1.048242
 C        -1.958182         0.622684        -1.864161
 C        -0.629743         0.044882        -2.277040
 C         0.581534         0.810447        -1.860084
 C         0.407132         0.976159        -0.225842
 O        -0.761679         0.105410         0.056149
 C         1.485149         0.293814         0.640567
 O         2.585104         0.888433         0.922953
 H        -2.646476        -2.142235        -1.603055
 H        -1.284343        -2.827198        -0.721097
 H        -2.374195        -1.715088         0.285062
 H        -2.819587         0.398805        -2.520691
 H        -1.924506         1.671189        -1.509901
 H        -0.538768        -0.474963        -3.228622
 H         1.387562         0.074842        -2.077347
 H         0.647009         1.830525        -2.285744
 H         0.265738         1.987420         0.204434
 H         1.273917        -0.757150         0.644070
