19
Iteration:  1598charge 0 multiplicity 1
 C        -1.386677        -1.833455        -0.666716
 C        -1.373891        -0.394207        -0.943964
 C        -2.111651         0.499544        -1.928615
 C        -0.620444         0.298915        -2.055267
 C         0.403207         1.236127        -1.423466
 C         0.279540         0.907846         0.034886
 O        -1.015486         0.326677         0.192209
 C         1.531755         0.051311         0.446828
 O         2.679319         0.355156         0.018624
 H        -2.339706        -2.194754        -0.188984
 H        -1.292381        -2.166361        -1.713606
 H        -0.586520        -2.146324        -0.083069
 H        -2.654091         0.116018        -2.807314
 H        -2.501443         1.511452        -1.649631
 H        -0.290760        -0.393915        -2.875161
 H         1.373581         1.242979        -1.844348
 H         0.222779         2.277303        -1.560090
 H         0.420783         1.831006         0.696279
 H         1.359762        -0.692812         1.272726
