19
Iteration:  1193
 C        -1.584920        -1.789636        -0.741248
 C        -1.476436        -0.353169        -0.899543
 C        -2.132019         0.516770        -1.986233
 C        -0.634327         0.313935        -2.108603
 C         0.410081         1.152591        -1.551901
 C         0.336035         0.816920         0.065258
 O        -0.995392         0.234701         0.268703
 C         1.642618         0.036072         0.358424
 O         2.800865         0.564718         0.227698
 H        -2.221389        -1.977720         0.221483
 H        -1.888268        -2.369694        -1.559075
 H        -0.600051        -2.144954        -0.444794
 H        -2.720573        -0.037469        -2.784806
 H        -2.591545         1.496111        -1.772537
 H        -0.176795        -0.321688        -2.909656
 H         1.353973         0.869554        -1.873420
 H         0.303697         2.159235        -1.685869
 H         0.298318         1.701717         0.869023
 H         1.622541        -0.991910         0.556400
