19
Iteration:  2016charge 0 multiplicity 1
 C        -1.571815        -1.859610        -0.740775
 C        -1.340028        -0.424283        -1.019326
 C        -2.170598         0.454217        -2.014605
 C        -0.606840         0.322541        -2.078965
 C         0.254669         1.333824        -1.493342
 C         0.385100         0.945883        -0.022390
 O        -0.904910         0.240455         0.231118
 C         1.574154         0.260865         0.574091
 O         2.774291         0.232897         0.166079
 H        -1.911003        -2.009185         0.338401
 H        -2.263635        -2.379276        -1.468187
 H        -0.592864        -2.352847        -0.833817
 H        -2.851603        -0.180086        -2.648152
 H        -2.716254         1.354406        -1.680007
 H        -0.120766        -0.249411        -2.889628
 H         1.326070         1.301695        -1.836975
 H         0.008704         2.444048        -1.670526
 H         0.504715         1.882533         0.577628
 H         1.415695        -0.303843         1.486074
