19
Iteration:  1398charge 0 multiplicity 1
 C        -1.723896        -1.912295        -0.776468
 C        -1.330138        -0.450684        -0.989679
 C        -2.137297         0.456642        -1.884817
 C        -0.666824         0.315437        -2.148406
 C         0.349543         1.352249        -1.558270
 C         0.349861         0.957660        -0.054028
 O        -0.834417         0.120636         0.216010
 C         1.673448         0.297638         0.641041
 O         2.785504         0.323125         0.183357
 H        -2.767809        -1.959810        -0.180154
 H        -1.852562        -2.432217        -1.752461
 H        -0.969457        -2.138893         0.007674
 H        -2.614283        -0.075104        -2.685005
 H        -2.548452         1.459093        -1.774425
 H        -0.581215        -0.157431        -3.136252
 H         1.406845         1.074409        -2.024478
 H         0.088739         2.445245        -1.850086
 H         0.113766         1.843272         0.712724
 H         1.345043         0.119226         1.728696
