19
Iteration:  1192charge 0 multiplicity 1
 C        -1.583756        -1.793808        -0.745913
 C        -1.477154        -0.350152        -0.903222
 C        -2.126937         0.522151        -1.995694
 C        -0.634079         0.313903        -2.100901
 C         0.408385         1.150016        -1.555126
 C         0.340426         0.809919         0.070994
 O        -0.990887         0.235796         0.273805
 C         1.644947         0.039426         0.353389
 O         2.788661         0.563020         0.228150
 H        -2.169824        -1.958702         0.210116
 H        -1.903472        -2.397047        -1.520446
 H        -0.638332        -2.128825        -0.442274
 H        -2.720087        -0.057348        -2.742464
 H        -2.572211         1.473329        -1.756578
 H        -0.228642        -0.323636        -2.917975
 H         1.418242         0.884685        -1.868439
 H         0.271145         2.194460        -1.711371
 H         0.290181         1.724945         0.865388
 H         1.626412        -0.994925         0.563109
