19
Iteration:   539
 C        -1.519473        -1.857878        -0.790270
 C        -1.232267        -0.406434        -0.965830
 C        -2.061523         0.444744        -1.816181
 C        -0.545979         0.338002        -2.083115
 C         0.453380         1.245252        -1.504075
 C         0.264046         0.965323         0.008265
 O        -0.917099         0.273285         0.273821
 C         1.507855         0.291087         0.542016
 O         2.533425         0.227211        -0.055608
 H        -2.140674        -1.870023         0.109176
 H        -2.145465        -2.272081        -1.634593
 H        -0.747996        -2.552701        -0.440636
 H        -2.835656         0.123882        -2.601740
 H        -2.390208         1.401156        -1.258403
 H        -0.289466        -0.327357        -2.909731
 H         1.501401         0.809074        -1.636717
 H         0.325390         2.289768        -1.722496
 H         0.123107         1.922921         0.561415
 H         1.347367        -0.288476         1.531753
