19
Iteration:   795
 C        -1.405022        -1.888295        -0.759667
 C        -1.318030        -0.380822        -0.877266
 C        -2.055947         0.404653        -1.874695
 C        -0.594197         0.367487        -2.097013
 C         0.425561         1.239243        -1.471001
 C         0.361330         0.950239         0.042810
 O        -1.040811         0.438734         0.245279
 C         1.455604         0.142149         0.539728
 O         2.597523         0.247281        -0.064105
 H        -2.137767        -2.158740        -0.003415
 H        -1.678634        -2.231750        -1.788865
 H        -0.406477        -2.346929        -0.467176
 H        -2.546903        -0.105831        -2.758823
 H        -2.600739         1.322843        -1.547589
 H        -0.354886        -0.202955        -2.977615
 H         1.425777         0.813275        -1.732576
 H         0.340560         2.227191        -1.603154
 H         0.383931         1.817123         0.758246
 H         1.230357        -0.633150         1.371310
