19
Iteration:  4064charge 0 multiplicity 1
 C        -2.074444        -1.743362        -0.999021
 C        -1.335932        -0.462816        -1.038230
 C        -1.938541         0.668686        -1.746332
 C        -0.635070         0.082972        -2.283212
 C         0.637169         0.677875        -1.721146
 C         0.366131         0.822970        -0.245846
 O        -0.682770        -0.129539         0.166890
 C         1.481717         0.594425         0.761082
 O         2.658924         0.926710         0.711097
 H        -1.988208        -2.406338        -1.802591
 H        -1.625023        -2.076165         0.024823
 H        -3.231634        -1.714293        -0.903553
 H        -2.737625         0.440043        -2.413822
 H        -2.037123         1.638322        -1.337773
 H        -0.561070        -0.563354        -3.143407
 H         1.516928         0.089142        -2.056851
 H         0.889728         1.624613        -2.277339
 H         0.073753         2.022439        -0.279798
 H         1.085889        -0.007182         1.622011
