19
Iteration:  3806
 C        -2.260417        -1.729828        -0.755027
 C        -1.401321        -0.468456        -1.109098
 C        -1.898384         0.866093        -1.873278
 C        -0.632958         0.117927        -2.382506
 C         0.715257         0.519493        -1.903648
 C         0.447700         0.684439        -0.290528
 O        -0.533700        -0.391252         0.071563
 C         1.666341         0.498415         0.654270
 O         2.409092         1.342769         1.115025
 H        -2.130495        -1.923414         0.310353
 H        -3.277721        -1.425705        -1.146520
 H        -2.156307        -2.574274        -1.303879
 H        -2.723656         0.562356        -2.537469
 H        -1.966678         1.797901        -1.334831
 H        -0.943688        -0.520063        -3.184676
 H         1.549657        -0.164830        -2.036297
 H         1.036632         1.505549        -2.177491
 H         0.061421         1.707689        -0.303138
 H         1.924936        -0.548771         0.859954
