19
Iteration:  1980
 C        -1.477038        -1.901964        -0.794848
 C        -1.246003        -0.340833        -0.954080
 C        -2.056507         0.519164        -1.836883
 C        -0.533747         0.224460        -2.066044
 C         0.410866         1.226519        -1.521817
 C         0.290731         0.989145        -0.014691
 O        -0.934296         0.283004         0.292929
 C         1.426466         0.167163         0.470986
 O         2.562667         0.343360         0.065776
 H        -2.026268        -2.153321         0.214483
 H        -2.104603        -2.384281        -1.607668
 H        -0.510482        -2.361597        -0.676988
 H        -2.735081         0.093070        -2.551591
 H        -2.195882         1.439659        -1.273656
 H        -0.161520        -0.311646        -3.009858
 H         1.401786         0.892469        -1.880657
 H         0.168546         2.365261        -1.825304
 H         0.289946         1.877196         0.493673
 H         1.041103        -0.592752         1.174681
