19
Iteration:  4922charge 0 multiplicity 1
 C        -1.848262        -2.001464        -0.835144
 C        -1.231151        -0.466171        -1.028058
 C        -1.796649         0.368587        -2.073245
 C        -0.336441        -0.009449        -2.220627
 C         0.572879         1.057767        -1.642287
 C         0.268637         1.142670        -0.143904
 O        -1.028129         0.396151         0.100324
 C         1.353676         0.451776         0.770373
 O         2.539577         0.494025         0.678994
 H        -1.493597        -2.350772         0.219538
 H        -2.790880        -1.800191        -1.077241
 H        -1.197384        -2.625164        -1.504000
 H        -2.489004        -0.150247        -2.768249
 H        -2.090002         1.382553        -1.775400
 H        -0.007523        -0.671880        -3.122713
 H         1.577000         0.632512        -1.840118
 H         0.418737         2.023068        -2.252561
 H         0.241889         2.147793         0.258421
 H         0.853307         0.139534         1.670841
