19
Iteration:  1059charge 0 multiplicity 1
 C        -1.483907        -1.894154        -0.790657
 C        -1.401452        -0.438172        -0.996432
 C        -2.145700         0.540938        -1.810070
 C        -0.670065         0.251893        -2.062294
 C         0.551213         1.120253        -1.552466
 C         0.329169         1.000546         0.036185
 O        -0.957344         0.321225         0.271572
 C         1.497683         0.145748         0.435477
 O         2.685325         0.436172         0.134756
 H        -2.349268        -2.156742        -0.161765
 H        -1.611743        -2.458546        -1.763399
 H        -0.548740        -2.207327        -0.388791
 H        -2.813449         0.309239        -2.614343
 H        -2.394240         1.466832        -1.328940
 H        -0.410212        -0.275761        -2.995121
 H         1.513412         0.748572        -1.922843
 H         0.500552         2.115229        -1.735720
 H         0.121627         1.947656         0.557933
 H         1.220803        -0.838982         0.926826
