19
Iteration:  2538
 C        -1.806412        -1.913368        -0.807186
 C        -1.345334        -0.416664        -0.947331
 C        -2.134142         0.474466        -1.931171
 C        -0.616599         0.239079        -2.138463
 C         0.443052         1.320792        -1.525129
 C         0.346983         0.945732         0.025508
 O        -0.812719         0.122027         0.237597
 C         1.636647         0.307221         0.537283
 O         2.751712         0.426598         0.175988
 H        -2.225578        -1.985099         0.130249
 H        -2.559215        -2.103955        -1.562894
 H        -1.062878        -2.695728        -0.877615
 H        -2.862540         0.058806        -2.647606
 H        -2.324226         1.425309        -1.453301
 H        -0.334764        -0.442504        -2.970452
 H         1.442830         1.190574        -1.950151
 H        -0.051912         2.342349        -1.568670
 H         0.230847         1.841245         0.561401
 H         1.446878        -0.410052         1.348558
