19
Iteration:  3428charge 0 multiplicity 1
 C        -1.799257        -1.905192        -0.864156
 C        -1.373944        -0.383306        -1.075347
 C        -2.111617         0.570299        -1.970985
 C        -0.525281         0.181121        -2.192621
 C         0.535489         1.086050        -1.522191
 C         0.309165         0.770188        -0.025650
 O        -0.956815         0.120036         0.261480
 C         1.625212         0.353684         0.658859
 O         2.725588         0.662159         0.300748
 H        -2.708775        -1.957550        -0.320959
 H        -1.847629        -2.420038        -1.750755
 H        -0.967049        -2.250315        -0.187347
 H        -2.863159         0.200299        -2.684592
 H        -2.256361         1.605649        -1.676275
 H        -0.294931        -0.635120        -2.910165
 H         1.553983         0.679162        -1.757811
 H         0.597251         2.204038        -1.612786
 H         0.206153         1.803593         0.506123
 H         1.366420        -0.327195         1.494623
