19
Iteration:  1242charge 0 multiplicity 1
 C        -1.662871        -1.859518        -0.806850
 C        -1.264808        -0.459544        -0.846583
 C        -2.065592         0.507828        -1.772781
 C        -0.625676         0.209966        -2.114121
 C         0.318177         1.341150        -1.653072
 C         0.350862         1.008319        -0.176062
 O        -0.776509         0.205370         0.255469
 C         1.534577         0.127628         0.408201
 O         2.657088         0.393889         0.332188
 H        -2.650620        -1.992458        -0.385062
 H        -1.585691        -2.285625        -1.922653
 H        -0.917423        -2.607828        -0.301380
 H        -2.934729         0.140572        -2.291673
 H        -2.248618         1.488982        -1.358715
 H        -0.556426        -0.343475        -3.029935
 H         1.456215         1.281588        -1.905143
 H        -0.148615         2.391824        -1.818249
 H         0.346496         1.948052         0.263950
 H         1.145462        -0.634090         1.077974
