19
Iteration:  4345
 C        -1.959008        -1.752696        -0.690585
 C        -1.243361        -0.431349        -1.010801
 C        -1.992598         0.622299        -1.858104
 C        -0.653066         0.007560        -2.293155
 C         0.537392         0.865676        -1.876533
 C         0.471127         0.917995        -0.280277
 O        -0.604764         0.045571         0.122285
 C         1.571832         0.261809         0.410444
 O         2.341570         0.875663         1.058794
 H        -1.992221        -2.409053        -1.531444
 H        -1.392880        -2.109210         0.149721
 H        -3.069795        -1.516401        -0.446157
 H        -2.868851         0.167159        -2.338791
 H        -1.960865         1.680696        -1.603696
 H        -0.602482        -0.461767        -3.375805
 H         1.462103         0.410907        -2.178138
 H         0.621601         1.892502        -2.384747
 H         0.519908         2.013698         0.094307
 H         1.712284        -0.809692         0.123665
