19
Iteration:  1200
 C        -1.588869        -1.808952        -0.694783
 C        -1.448658        -0.342549        -0.932636
 C        -2.166695         0.493180        -1.950653
 C        -0.653328         0.286010        -2.143212
 C         0.403264         1.166689        -1.478209
 C         0.317418         0.853775         0.028084
 O        -1.001855         0.242466         0.251772
 C         1.686727         0.049819         0.367799
 O         2.806951         0.553612         0.234556
 H        -2.341006        -2.081719        -0.035386
 H        -1.874268        -2.209746        -1.696484
 H        -0.619083        -2.204710        -0.477708
 H        -2.658470         0.079888        -2.783438
 H        -2.543282         1.471556        -1.791660
 H        -0.183576        -0.349504        -2.869470
 H         1.398044         0.738207        -1.995033
 H         0.406127         2.349710        -1.632536
 H         0.396017         1.688868         0.741103
 H         1.538512        -1.099833         0.599495
