19
Iteration:  2724
 C        -1.653297        -1.848135        -0.731403
 C        -1.304359        -0.493147        -0.996775
 C        -2.087173         0.519685        -1.928766
 C        -0.611374         0.237480        -2.157133
 C         0.442025         1.293287        -1.452618
 C         0.275970         0.957795        -0.014360
 O        -0.912944         0.221474         0.235304
 C         1.615978         0.253589         0.527918
 O         2.702167         0.369227         0.122929
 H        -2.101924        -1.935670         0.322519
 H        -2.359544        -2.236159        -1.456873
 H        -0.829336        -2.707807        -0.661411
 H        -2.654653        -0.119061        -2.615767
 H        -2.577743         1.446181        -1.670026
 H        -0.238590        -0.173286        -3.124802
 H         1.439119         1.171659        -1.798012
 H        -0.108830         2.123008        -1.656499
 H         0.298428         1.861755         0.778146
 H         1.379850        -0.440179         1.373446
