19
Iteration:  2955
 C        -1.501148        -1.832468        -0.766152
 C        -1.210476        -0.408028        -0.946624
 C        -1.971962         0.353378        -1.970468
 C        -0.534576         0.268461        -2.041630
 C         0.197899         1.514081        -1.538131
 C         0.295185         1.059508         0.031090
 O        -0.851680         0.320045         0.307254
 C         1.507935         0.214542         0.529405
 O         2.561394         0.038724         0.033492
 H        -2.110283        -1.802007         0.198783
 H        -1.961988        -2.222572        -1.623776
 H        -0.630835        -2.429240        -0.500418
 H        -2.607233        -0.321381        -2.605467
 H        -2.515733         1.305740        -1.794733
 H         0.005097        -0.236239        -2.823249
 H         1.164586         1.587832        -2.020434
 H        -0.423081         2.415106        -1.610395
 H         0.234149         1.888383         0.630916
 H         1.101948        -0.479807         1.313819
