19
Iteration:  4087
 C        -2.248110        -1.880402        -1.005067
 C        -1.361208        -0.519796        -1.034803
 C        -1.955696         0.682024        -1.854709
 C        -0.603208         0.026030        -2.237970
 C         0.655016         0.822088        -1.704318
 C         0.352166         0.790669        -0.163255
 O        -0.613781        -0.132238         0.094548
 C         1.524991         0.711825         0.895656
 O         2.725933         0.888732         0.625181
 H        -2.280803        -2.402802        -1.945664
 H        -2.113070        -2.451097        -0.003752
 H        -3.331310        -1.558886        -1.027320
 H        -2.840340         0.468821        -2.428608
 H        -1.964015         1.671118        -1.364730
 H        -0.445788        -0.536964        -3.201119
 H         1.537495         0.208266        -1.975081
 H         0.914690         1.751921        -2.292698
 H         0.113320         2.007236         0.198326
 H         1.270120         0.634354         1.979677
