19
Iteration:   203
 C        -1.629813        -1.852205        -0.925456
 C        -1.250380        -0.419001        -0.950001
 C        -2.119716         0.466588        -1.788225
 C        -0.636024         0.237209        -2.091230
 C         0.362961         1.246791        -1.535702
 C         0.341159         1.091140        -0.000782
 O        -0.883025         0.192822         0.301296
 C         1.579511         0.345886         0.589977
 O         2.693942         0.212197         0.081577
 H        -2.386576        -2.200502        -0.053193
 H        -2.347047        -2.227870        -1.744680
 H        -0.689997        -2.570173        -0.991153
 H        -2.785193         0.177825        -2.610686
 H        -2.411505         1.533876        -1.511506
 H        -0.347129        -0.383869        -2.916893
 H         1.389637         1.002803        -1.812018
 H         0.307149         2.287498        -1.963434
 H         0.176034         2.073485         0.512499
 H         1.355375        -0.089055         1.574400
