19
Iteration:  3490charge 0 multiplicity 1
 C        -1.763159        -1.861149        -0.891032
 C        -1.269986        -0.471483        -0.984923
 C        -1.994646         0.609072        -1.732744
 C        -0.615014         0.160504        -2.166586
 C         0.467210         1.061480        -1.734088
 C         0.317822         1.023441        -0.218556
 O        -0.760015         0.020466         0.152607
 C         1.459676         0.445570         0.656681
 O         2.633595         0.520604         0.530250
 H        -1.545792        -2.227304         0.243233
 H        -2.890737        -2.024640        -1.052498
 H        -1.237441        -2.515480        -1.658615
 H        -2.562665         0.348254        -2.596416
 H        -2.288574         1.504365        -1.255133
 H        -0.389107        -0.270671        -3.122430
 H         1.435154         0.653561        -1.929936
 H         0.361686         2.068037        -2.094084
 H        -0.015910         1.928223         0.202903
 H         0.945166        -0.244745         1.391474
