19
Iteration:  1146
 C        -1.695584        -1.898128        -0.779807
 C        -1.260120        -0.498819        -0.972683
 C        -2.058837         0.521296        -1.778311
 C        -0.553868         0.169067        -2.141165
 C         0.360251         1.358525        -1.598999
 C         0.308505         1.050993        -0.106537
 O        -0.865392         0.256221         0.314476
 C         1.552208         0.117045         0.361848
 O         2.696687         0.400083         0.309459
 H        -2.167457        -1.953672         0.136273
 H        -2.351792        -2.157834        -1.620570
 H        -0.915983        -2.587753        -0.753519
 H        -2.723713        -0.034780        -2.381271
 H        -2.496474         1.384264        -1.318387
 H        -0.383515        -0.406683        -3.042731
 H         1.391036         1.347153        -2.169864
 H        -0.122309         2.365006        -1.743727
 H         0.454278         1.997189         0.571657
 H         1.195337        -0.805329         0.723464
