19
Iteration:  4628
 C        -2.190348        -1.759669        -1.097210
 C        -1.375895        -0.440261        -1.013171
 C        -1.849886         0.728358        -1.807192
 C        -0.666171        -0.073475        -2.261365
 C         0.604101         0.667403        -1.732581
 C         0.444359         0.801737        -0.193332
 O        -0.663345        -0.212429         0.163452
 C         1.551948         0.546425         0.821580
 O         2.608685         1.159592         0.723719
 H        -2.121920        -2.174886        -0.110636
 H        -3.154662        -1.578717        -1.455119
 H        -1.767452        -2.597203        -1.755857
 H        -2.734750         0.511497        -2.388957
 H        -1.687823         1.744264        -1.545319
 H        -0.573525        -0.783209        -3.018838
 H         1.545388         0.152812        -1.935676
 H         0.818538         1.654308        -2.245990
 H         0.012126         1.807843         0.190917
 H         1.335283        -0.041858         1.677330
