19
Iteration:  4351charge 0 multiplicity 1
 C        -1.917698        -1.724574        -0.661240
 C        -1.300660        -0.409675        -0.979762
 C        -1.974165         0.623441        -1.853019
 C        -0.655736        -0.006865        -2.295942
 C         0.576745         0.870867        -1.881985
 C         0.414016         0.895209        -0.327799
 O        -0.619563         0.033465         0.123538
 C         1.549967         0.257489         0.394235
 O         2.338082         0.869257         1.060058
 H        -1.839855        -2.357590        -1.657892
 H        -1.220721        -2.228399         0.054697
 H        -2.910408        -1.558304        -0.368166
 H        -2.949664         0.460887        -2.329738
 H        -1.920281         1.669546        -1.539311
 H        -0.432980        -0.336286        -3.255143
 H         1.532929         0.318893        -2.141783
 H         0.641657         1.849769        -2.269531
 H         0.396920         1.959709        -0.128007
 H         1.896329        -0.799473         0.181321
