19
Iteration:  2979
 C        -1.496521        -1.942029        -0.804334
 C        -1.269236        -0.430778        -0.882945
 C        -2.032247         0.350680        -1.897946
 C        -0.513190         0.261821        -2.077482
 C         0.354385         1.465291        -1.436424
 C         0.340277         1.183685        -0.001719
 O        -0.902341         0.360839         0.343929
 C         1.433276         0.235253         0.450758
 O         2.539205         0.047755        -0.039762
 H        -2.562465        -2.161172        -0.364548
 H        -1.255229        -2.229834        -1.897345
 H        -0.784832        -2.481129        -0.144679
 H        -2.631059        -0.284824        -2.584893
 H        -2.561164         1.301640        -1.860859
 H         0.121597        -0.306594        -2.780342
 H         1.386902         1.490803        -1.700048
 H        -0.150871         2.380056        -1.546605
 H         0.313117         2.026804         0.594230
 H         1.133203        -0.278045         1.406141
