19
Iteration:  4619
 C        -2.189808        -1.760303        -1.071305
 C        -1.470489        -0.480945        -1.069740
 C        -1.877619         0.739684        -1.811028
 C        -0.618982        -0.053891        -2.224996
 C         0.625749         0.648143        -1.745490
 C         0.420024         0.698292        -0.230973
 O        -0.659114        -0.211438         0.134304
 C         1.610220         0.592386         0.901375
 O         2.644790         1.202643         0.736804
 H        -2.303261        -1.975588        -0.102404
 H        -3.159078        -1.604915        -1.561626
 H        -1.559389        -2.412983        -1.707471
 H        -2.848437         0.795537        -2.346644
 H        -1.664679         1.693384        -1.309427
 H        -0.646025        -0.801393        -3.029451
 H         1.485061         0.094435        -2.009125
 H         0.689260         1.713571        -2.167225
 H        -0.137584         1.740861        -0.086621
 H         1.401644        -0.208649         1.616066
