19
Iteration:  3778
 C        -2.317295        -1.606958        -0.904718
 C        -1.377878        -0.478472        -1.090082
 C        -1.841829         0.747647        -1.785387
 C        -0.597640        -0.081838        -2.321393
 C         0.590992         0.620629        -1.743739
 C         0.461132         0.759488        -0.247407
 O        -0.421904        -0.310937         0.006297
 C         1.616961         0.443008         0.626922
 O         2.381519         1.314445         0.990920
 H        -2.527993        -1.765426         0.227835
 H        -3.161439        -1.445688        -1.484986
 H        -1.977851        -2.662592        -1.369761
 H        -2.898180         0.646738        -2.153825
 H        -1.540578         1.692434        -1.282077
 H        -0.735065        -0.831838        -3.087598
 H         1.577876         0.039849        -1.913578
 H         0.666751         1.649902        -2.108454
 H         0.204604         1.839152        -0.088195
 H         1.641825        -0.563510         1.100755
