19
Iteration:  1908charge 0 multiplicity 1
 C        -1.554405        -1.868147        -0.723014
 C        -1.352871        -0.413226        -1.041224
 C        -2.118753         0.371618        -1.977097
 C        -0.636469         0.312098        -2.090342
 C         0.248623         1.411423        -1.497161
 C         0.365944         0.970822        -0.002887
 O        -0.904681         0.275126         0.267813
 C         1.636569         0.207182         0.558707
 O         2.717222         0.200330         0.107727
 H        -2.552182        -1.958639        -0.336198
 H        -1.623276        -2.594884        -1.548247
 H        -0.839892        -2.086345         0.129939
 H        -2.572093        -0.327812        -2.716240
 H        -2.369464         1.413965        -1.813089
 H        -0.003392        -0.028183        -2.960197
 H         1.214613         1.587669        -1.983602
 H        -0.209775         2.353881        -1.403183
 H         0.534575         1.986442         0.577756
 H         1.359599        -0.374961         1.505979
