19
Iteration:  4892charge 0 multiplicity 1
 C        -1.770425        -1.798490        -0.711010
 C        -1.310275        -0.390076        -1.075530
 C        -1.864537         0.394111        -2.253393
 C        -0.350670         0.051856        -2.218115
 C         0.586315         0.998873        -1.548024
 C         0.277016         1.026122        -0.084120
 O        -0.905332         0.167977         0.083027
 C         1.308090         0.443161         0.778286
 O         2.542450         0.584647         0.619676
 H        -1.854191        -1.700535         0.367942
 H        -2.765049        -2.075158        -1.212697
 H        -1.041423        -2.591734        -1.097636
 H        -2.533795        -0.170779        -2.979733
 H        -2.246646         1.431466        -2.119132
 H        -0.010552        -0.763434        -2.864438
 H         1.502209         0.570637        -1.807150
 H         0.399400         2.014814        -1.986641
 H         0.119445         2.132507         0.340016
 H         0.735480        -0.103997         1.657420
