19
Iteration:  1839charge 0 multiplicity 1
 C        -1.401442        -1.920877        -0.798874
 C        -1.297435        -0.343465        -0.889776
 C        -2.015532         0.474564        -1.919656
 C        -0.538429         0.241662        -2.014993
 C         0.403651         1.253855        -1.435659
 C         0.298350         1.032587         0.046024
 O        -1.017455         0.350215         0.270314
 C         1.443245         0.191613         0.518479
 O         2.549584         0.252009        -0.082515
 H        -1.903542        -2.225371         0.207079
 H        -2.055811        -2.443316        -1.516729
 H        -0.422495        -2.311423        -0.830071
 H        -2.561177        -0.038659        -2.692716
 H        -2.186515         1.502658        -1.661685
 H        -0.146736        -0.343906        -2.818776
 H         1.363565         0.977231        -1.725384
 H         0.212495         2.281081        -1.665784
 H         0.054073         2.028001         0.651287
 H         1.416202        -0.730603         1.166393
