19
Iteration:  2111charge 0 multiplicity 1
 C        -1.485845        -1.837217        -0.772319
 C        -1.344682        -0.387250        -1.001363
 C        -2.151245         0.524627        -1.868462
 C        -0.587191         0.227798        -2.112470
 C         0.413181         1.188660        -1.424261
 C         0.304795         0.889088         0.017653
 O        -0.954090         0.296193         0.267514
 C         1.567846         0.219806         0.623504
 O         2.630523         0.345903        -0.036254
 H        -2.464657        -2.333390        -0.386333
 H        -1.335721        -2.331474        -1.772650
 H        -0.692942        -2.261842        -0.218567
 H        -2.694196         0.156069        -2.737560
 H        -2.447517         1.534753        -1.590687
 H        -0.280050        -0.259546        -3.098790
 H         1.318474         1.017193        -1.925648
 H         0.341121         2.186064        -1.735942
 H         0.210547         1.891302         0.732587
 H         1.616285        -0.291968         1.672851
