19
Iteration:  3296
 C        -1.580339        -1.938929        -0.863417
 C        -1.378273        -0.473149        -0.965199
 C        -2.072371         0.535063        -1.825510
 C        -0.616229         0.216751        -2.109170
 C         0.478051         1.184849        -1.582072
 C         0.264451         1.076424        -0.102729
 O        -0.850823         0.254690         0.195993
 C         1.515438         0.238305         0.586942
 O         2.635734         0.394207         0.307786
 H        -0.956674        -2.405168        -1.680114
 H        -1.220125        -2.285432         0.023564
 H        -2.598758        -2.307967        -1.063806
 H        -2.826802         0.192109        -2.530179
 H        -2.290344         1.518420        -1.472807
 H        -0.447013        -0.451018        -2.920740
 H         1.547571         0.899956        -1.780671
 H         0.484602         2.249352        -2.046700
 H         0.293993         2.013357         0.486751
 H         1.127644        -0.388876         1.452288
