19
Iteration:  2471
 C        -1.572489        -1.961460        -0.896385
 C        -1.337865        -0.447911        -0.907426
 C        -2.172260         0.584650        -1.741613
 C        -0.704149         0.283001        -2.076705
 C         0.522633         1.079060        -1.635536
 C         0.278654         1.029888        -0.064884
 O        -0.845100         0.239664         0.267023
 C         1.508622         0.324721         0.534788
 O         2.738571         0.369791         0.179262
 H        -2.529416        -2.085070        -0.668311
 H        -1.461280        -2.099140        -2.005151
 H        -0.909520        -2.502217        -0.245783
 H        -2.819093         0.154576        -2.516285
 H        -2.383574         1.574581        -1.243545
 H        -0.693721        -0.328388        -3.015524
 H         1.545581         0.636979        -1.745281
 H         0.351156         2.136127        -2.017524
 H         0.134764         1.887756         0.593668
 H         1.199607        -0.341604         1.369351
