19
Iteration:  2285
 C        -1.632222        -1.868636        -0.730479
 C        -1.235279        -0.492187        -0.917928
 C        -2.113786         0.474930        -1.828977
 C        -0.619142         0.264691        -2.161873
 C         0.366817         1.418331        -1.610529
 C         0.310308         1.058771        -0.081344
 O        -0.834691         0.214024         0.249978
 C         1.533448         0.183457         0.433277
 O         2.705852         0.292110         0.247271
 H        -2.652578        -2.140319        -0.403375
 H        -1.574162        -2.483564        -1.684876
 H        -1.066333        -2.428654        -0.041826
 H        -2.812775        -0.180376        -2.405455
 H        -2.448158         1.411713        -1.339949
 H        -0.343303        -0.095369        -3.125190
 H         1.434476         1.251749        -1.924692
 H         0.007417         2.468903        -1.590398
 H         0.086145         1.846047         0.512642
 H         1.121244        -0.733005         1.011654
