19
Iteration:  2322
 C        -1.643913        -1.900510        -0.774292
 C        -1.312343        -0.369621        -0.929669
 C        -2.081749         0.524121        -1.959739
 C        -0.615553         0.227945        -2.119068
 C         0.354098         1.292146        -1.505937
 C         0.310107         0.902737        -0.007637
 O        -0.895877         0.181419         0.270245
 C         1.608311         0.232574         0.564611
 O         2.722469         0.368274         0.109423
 H        -2.511283        -2.064115         0.064758
 H        -1.847199        -2.204239        -1.780616
 H        -0.661853        -2.321981        -0.492788
 H        -2.813728         0.000580        -2.542028
 H        -2.460089         1.494666        -1.647060
 H        -0.467813        -0.304371        -3.081187
 H         1.350197         1.264696        -1.853074
 H         0.076881         2.301291        -1.737033
 H         0.281719         1.933641         0.449311
 H         1.407585        -0.325779         1.515114
