19
Iteration:  1212charge 0 multiplicity 1
 C        -1.619787        -1.873960        -0.773090
 C        -1.358001        -0.380004        -0.983613
 C        -2.186549         0.503399        -1.939391
 C        -0.679523         0.234930        -2.108474
 C         0.400518         1.200487        -1.452665
 C         0.360345         0.893913         0.015835
 O        -0.925157         0.321733         0.249489
 C         1.632575         0.040206         0.360471
 O         2.790110         0.534013         0.261373
 H        -2.458379        -2.059958        -0.150949
 H        -1.808876        -2.344447        -1.740098
 H        -0.825931        -2.391214        -0.328783
 H        -2.920806        -0.036695        -2.499735
 H        -2.436843         1.420796        -1.494806
 H        -0.579099        -0.376141        -2.988213
 H         1.509326         0.974026        -1.796361
 H         0.191504         2.309864        -1.740897
 H         0.394019         1.910063         0.499301
 H         1.507318        -1.029322         0.831311
