19
Iteration:  2575
 C        -1.775342        -1.837753        -0.812899
 C        -1.278034        -0.435254        -0.974533
 C        -2.084607         0.485090        -1.861209
 C        -0.566724         0.163857        -2.119878
 C         0.338420         1.304320        -1.557522
 C         0.333463         0.965373        -0.048966
 O        -0.800129         0.136981         0.280450
 C         1.614649         0.254264         0.455972
 O         2.730947         0.427896         0.240085
 H        -2.231941        -2.079452         0.199593
 H        -2.549598        -2.114962        -1.524242
 H        -1.056668        -2.568130        -1.073333
 H        -2.893566         0.210504        -2.536148
 H        -2.304413         1.526012        -1.522778
 H        -0.388931        -0.561259        -2.907714
 H         1.354623         1.556452        -1.932227
 H        -0.068225         2.344534        -1.552976
 H         0.137815         1.890810         0.614918
 H         1.143377        -0.558026         1.126216
