19
Iteration:   341
 C        -1.509568        -1.931121        -0.601277
 C        -1.279248        -0.419585        -0.961603
 C        -2.048824         0.459271        -1.842818
 C        -0.544712         0.354391        -2.106887
 C         0.364234         1.393125        -1.471566
 C         0.306281         0.942734        -0.062183
 O        -0.910401         0.294378         0.179254
 C         1.434365         0.158935         0.399653
 O         2.634500         0.216212         0.102449
 H        -2.145509        -1.827784         0.195526
 H        -2.033783        -2.598260        -1.315677
 H        -0.657200        -2.435605        -0.318242
 H        -2.737003         0.068867        -2.663370
 H        -2.436784         1.557806        -1.594685
 H        -0.247231         0.012459        -3.085841
 H         1.456247         1.445873        -1.967958
 H         0.006566         2.445749        -1.605633
 H         0.414600         1.776847         0.691609
 H         1.127247        -0.627116         1.101263
