19
Iteration:  4792charge 0 multiplicity 1
 C        -1.791764        -1.809946        -0.751983
 C        -1.424933        -0.408056        -1.049078
 C        -1.857911         0.514333        -2.174385
 C        -0.465144         0.050362        -2.316493
 C         0.608279         0.891655        -1.640969
 C         0.239712         0.955266        -0.114059
 O        -0.891707         0.078442         0.131133
 C         1.414500         0.491241         0.810250
 O         2.620574         0.685449         0.674968
 H        -2.748828        -2.044872        -1.370862
 H        -0.958054        -2.482619        -0.898700
 H        -1.978743        -1.916602         0.390270
 H        -2.691344         0.226509        -2.820789
 H        -2.004727         1.594473        -1.906810
 H        -0.114123        -0.805042        -3.007803
 H         1.586472         0.607834        -1.947272
 H         0.537438         1.953889        -2.053496
 H         0.044262         2.054555         0.164511
 H         0.996634        -0.138204         1.594890
