19
Iteration:  4667charge 0 multiplicity 1
 C        -2.104808        -1.822127        -0.897769
 C        -1.388774        -0.490127        -1.123797
 C        -1.919759         0.654360        -1.898782
 C        -0.468426         0.098057        -2.235232
 C         0.727166         0.711067        -1.603907
 C         0.291068         0.924863        -0.065090
 O        -0.755166        -0.155527         0.070928
 C         1.486495         0.509749         0.726234
 O         2.601956         1.017298         0.612116
 H        -1.348269        -2.283316        -0.103819
 H        -3.086661        -1.619726        -0.307847
 H        -2.247351        -2.348271        -1.818258
 H        -2.716555         0.385191        -2.592113
 H        -2.067243         1.700798        -1.588893
 H        -0.469456        -0.453038        -3.186890
 H         1.588761        -0.036485        -1.600551
 H         1.088702         1.581926        -2.084293
 H         0.091690         1.983560         0.218126
 H         1.152476        -0.234545         1.512929
