19
Iteration:  3985charge 0 multiplicity 1
 C        -2.157660        -1.804153        -1.009847
 C        -1.449317        -0.419539        -1.039119
 C        -1.983431         0.652293        -1.892989
 C        -0.616412        -0.018047        -2.169134
 C         0.700523         0.673059        -1.640371
 C         0.443871         0.815698        -0.134060
 O        -0.690887         0.051012         0.118392
 C         1.695221         0.360947         0.489394
 O         2.520668         1.128632         0.882468
 H        -3.016784        -1.830467        -1.622851
 H        -1.508538        -2.587494        -1.278388
 H        -2.316861        -1.962676         0.122230
 H        -2.762877         0.200391        -2.498590
 H        -2.060607         1.658219        -1.478010
 H        -0.487990        -0.587775        -3.100809
 H         1.329487        -0.148978        -1.794665
 H         0.886309         1.522823        -2.232760
 H         0.352166         1.962063         0.005966
 H         1.724602        -0.716030         0.829870
