19
Iteration:  1023
 C        -1.656423        -1.850937        -0.823274
 C        -1.288400        -0.409102        -0.897882
 C        -2.140705         0.457209        -1.841657
 C        -0.561421         0.201865        -2.127012
 C         0.363409         1.310143        -1.582945
 C         0.388825         0.981957        -0.049294
 O        -0.804049         0.223608         0.253399
 C         1.475789         0.230824         0.555150
 O         2.682138         0.339235         0.172824
 H        -2.218937        -2.014373         0.024516
 H        -2.124125        -2.198358        -1.733803
 H        -0.719142        -2.395726        -0.600076
 H        -2.843263        -0.029098        -2.572160
 H        -2.419285         1.473006        -1.451322
 H        -0.349415        -0.432606        -3.002902
 H         1.463290         1.368457        -2.019779
 H        -0.169089         2.273954        -1.885330
 H         0.270458         2.001975         0.584055
 H         1.097903        -0.631314         1.232496
