19
Iteration:  3126charge 0 multiplicity 1
 C        -1.344925        -1.860133        -0.578908
 C        -1.253787        -0.360372        -0.984029
 C        -2.116298         0.491318        -1.930091
 C        -0.564406         0.398279        -2.140382
 C         0.420585         1.326111        -1.471233
 C         0.311418         0.926357         0.040860
 O        -1.009830         0.319523         0.231786
 C         1.480925         0.116214         0.512788
 O         2.532340         0.173609        -0.025226
 H        -2.252952        -2.274439        -0.151497
 H        -1.278606        -2.472123        -1.664296
 H        -0.383103        -2.040796         0.007528
 H        -2.583945        -0.137146        -2.709325
 H        -2.700174         1.358247        -1.688018
 H        -0.199742        -0.278031        -2.861436
 H         1.406936         1.407042        -1.957207
 H        -0.081227         2.321719        -1.532208
 H         0.306911         1.792346         0.648398
 H         1.198850        -0.534442         1.397619
