19
Iteration:  2615charge 0 multiplicity 1
 C        -1.530781        -1.842918        -0.764099
 C        -1.320693        -0.376303        -1.015492
 C        -2.229621         0.596996        -1.816766
 C        -0.667693         0.272796        -2.172043
 C         0.526805         1.092731        -1.513210
 C         0.311124         0.840693        -0.011748
 O        -0.931098         0.221375         0.286342
 C         1.572178         0.123707         0.462034
 O         2.658208         0.527189         0.185433
 H        -2.340630        -1.978499        -0.028097
 H        -1.819978        -2.279056        -1.701394
 H        -0.538261        -2.216560        -0.348912
 H        -2.837510         0.240891        -2.618550
 H        -2.444720         1.568006        -1.399548
 H        -0.417674        -0.300830        -3.058215
 H         1.536900         0.855899        -1.841829
 H         0.412016         2.172556        -1.904834
 H         0.426034         1.767733         0.470303
 H         1.452583        -0.809168         1.051192
