19
Iteration:   723charge 0 multiplicity 1
 C        -1.564361        -1.848688        -0.786873
 C        -1.223119        -0.394781        -0.919067
 C        -2.018638         0.324600        -1.836159
 C        -0.460943         0.212472        -2.070413
 C         0.271759         1.428154        -1.456262
 C         0.390407         1.138529         0.031405
 O        -0.879408         0.328229         0.287093
 C         1.404683         0.177370         0.390778
 O         2.607305         0.140511         0.025093
 H        -2.542454        -1.880298        -0.230390
 H        -1.733163        -2.072698        -1.900642
 H        -0.852372        -2.558177        -0.324898
 H        -2.873309        -0.206506        -2.298393
 H        -2.376783         1.300307        -1.465679
 H         0.086546        -0.329059        -2.812156
 H         1.178415         1.431297        -1.991981
 H        -0.327207         2.491370        -1.578682
 H         0.268839         2.039073         0.614171
 H         0.937740        -0.684334         0.940681
