19
Iteration:  1046
 C        -1.546060        -1.895644        -0.821974
 C        -1.255293        -0.366952        -0.886790
 C        -2.106224         0.498918        -1.842314
 C        -0.597645         0.323361        -2.132541
 C         0.422483         1.159895        -1.527128
 C         0.291506         0.999129        -0.033123
 O        -0.903117         0.268690         0.306804
 C         1.460590         0.190687         0.444015
 O         2.648632         0.398620         0.140522
 H        -2.302467        -2.085032        -0.142431
 H        -1.879557        -2.283825        -1.806599
 H        -0.703483        -2.467743        -0.456780
 H        -2.872693        -0.042091        -2.446113
 H        -2.470371         1.344542        -1.239958
 H        -0.349107        -0.455814        -2.874047
 H         1.419721         0.576920        -1.754465
 H         0.592134         2.117617        -2.027033
 H         0.445900         2.052177         0.496494
 H         1.160728        -0.849383         0.884145
