19
Iteration:  2475
 C        -1.545845        -1.913425        -0.925993
 C        -1.345631        -0.458870        -0.897650
 C        -2.140065         0.604891        -1.710218
 C        -0.701371         0.247812        -2.058438
 C         0.523376         1.077769        -1.609003
 C         0.271203         0.976763        -0.063034
 O        -0.837730         0.254062         0.258453
 C         1.530134         0.297332         0.505929
 O         2.682804         0.394457         0.167939
 H        -2.675667        -2.183687        -0.566258
 H        -1.479924        -2.294906        -1.902582
 H        -0.878312        -2.409153        -0.248319
 H        -2.733222         0.247772        -2.555803
 H        -2.431589         1.551314        -1.319034
 H        -0.634344        -0.230531        -3.043312
 H         1.530934         0.680836        -1.720814
 H         0.426564         2.079440        -2.124922
 H         0.053681         1.987569         0.517863
 H         1.206535        -0.304011         1.434798
