19
Iteration:  2341charge 0 multiplicity 1
 C        -1.610502        -1.903901        -0.886108
 C        -1.420969        -0.417044        -0.986009
 C        -2.051744         0.525237        -1.907789
 C        -0.573036         0.171516        -2.055987
 C         0.381747         1.166430        -1.485804
 C         0.317728         0.954731         0.077935
 O        -0.950940         0.248829         0.316140
 C         1.600563         0.285310         0.536536
 O         2.713397         0.402409         0.028976
 H        -2.104361        -1.901181         0.147032
 H        -2.222890        -2.368669        -1.712403
 H        -0.678021        -2.361754        -0.898602
 H        -2.839735         0.413386        -2.703004
 H        -2.251142         1.543198        -1.541359
 H        -0.101661        -0.487427        -2.767561
 H         1.406735         0.979690        -1.851110
 H         0.260165         2.283064        -1.712485
 H         0.089462         1.872383         0.694750
 H         1.518018        -0.295478         1.496597
