19
Iteration:  4569charge 0 multiplicity 1
 C        -2.135248        -1.677485        -0.950906
 C        -1.364129        -0.451618        -1.093008
 C        -1.946309         0.804515        -1.661161
 C        -0.617282         0.124400        -2.282334
 C         0.816899         0.436947        -1.686390
 C         0.366161         0.727895        -0.120739
 O        -0.565282        -0.304230         0.055215
 C         1.526097         0.467890         0.647811
 O         2.446061         1.298329         0.714052
 H        -3.241971        -1.320054        -0.632724
 H        -2.327694        -1.979412        -2.042922
 H        -1.524953        -2.391494        -0.443553
 H        -2.781000         0.632328        -2.362737
 H        -2.065700         1.750409        -1.088816
 H        -0.836816        -0.348843        -3.308373
 H         1.527047        -0.477001        -1.716637
 H         1.187999         1.349901        -2.065047
 H        -0.196654         1.621753         0.132716
 H         1.429538        -0.435259         1.184375
