19
Iteration:   279charge 0 multiplicity 1
 C        -1.557125        -1.852396        -0.856074
 C        -1.331018        -0.377094        -0.917368
 C        -2.120020         0.376649        -1.915021
 C        -0.588967         0.257796        -2.056748
 C         0.410329         1.286047        -1.510052
 C         0.349496         0.944284         0.086667
 O        -0.953908         0.383180         0.292264
 C         1.590374         0.158244         0.553610
 O         2.668746         0.294614        -0.013902
 H        -2.531225        -2.075566        -0.201204
 H        -1.733524        -2.153619        -1.910009
 H        -0.829692        -2.446010        -0.161749
 H        -2.757971        -0.074588        -2.743560
 H        -2.577684         1.397158        -1.561657
 H        -0.285751        -0.199263        -2.986946
 H         1.376757         1.060975        -1.776925
 H         0.149757         2.280152        -1.782969
 H         0.266822         1.842761         0.715440
 H         1.452751        -0.510396         1.521901
