19
Iteration:  4523charge 0 multiplicity 1
 C        -2.272022        -1.767064        -1.072570
 C        -1.445903        -0.439477        -1.048803
 C        -1.923113         0.815770        -1.781979
 C        -0.666032        -0.056763        -2.243995
 C         0.624530         0.609170        -1.721894
 C         0.444649         0.690178        -0.190994
 O        -0.672866        -0.249626         0.145899
 C         1.835039         0.416347         0.633112
 O         2.533643         1.359377         0.900836
 H        -3.296532        -1.402253        -1.179938
 H        -1.984690        -2.446383        -1.969425
 H        -1.952780        -2.215155        -0.126879
 H        -2.828230         0.654445        -2.413939
 H        -1.777644         1.841744        -1.386795
 H        -0.663245        -0.566625        -3.193247
 H         1.494158        -0.038170        -1.891138
 H         0.785545         1.618988        -2.142926
 H         0.087113         1.638594         0.049425
 H         2.207960        -0.559837         0.848023
