19
Iteration:  2816charge 0 multiplicity 1
 C        -1.616021        -1.844093        -0.684825
 C        -1.248110        -0.461551        -1.050138
 C        -2.095028         0.338979        -1.927627
 C        -0.661869         0.419067        -2.139529
 C         0.303737         1.379986        -1.498263
 C         0.388783         0.970169        -0.085638
 O        -0.806738         0.220519         0.226174
 C         1.518389         0.245124         0.575594
 O         2.671838         0.223261         0.152398
 H        -2.613920        -1.782418        -0.212320
 H        -1.517166        -2.589769        -1.569207
 H        -0.975555        -2.127390         0.085669
 H        -2.754385        -0.094962        -2.679872
 H        -2.550281         1.238264        -1.460118
 H        -0.337844        -0.147941        -2.980138
 H         1.355107         1.209712        -1.740348
 H        -0.110574         2.426305        -1.576471
 H         0.412843         1.947309         0.473255
 H         1.181421        -0.271382         1.510118
