19
Iteration:  1482
 C        -1.598536        -1.875320        -0.739192
 C        -1.289506        -0.416909        -1.005353
 C        -2.062367         0.513654        -1.904042
 C        -0.637069         0.268687        -2.125595
 C         0.384870         1.262514        -1.511455
 C         0.306285         0.971968         0.024724
 O        -0.864798         0.211831         0.233262
 C         1.492555         0.240546         0.604716
 O         2.684270         0.357931         0.075697
 H        -1.963361        -2.186696         0.186926
 H        -2.305879        -2.328468        -1.511381
 H        -0.672905        -2.542485        -0.806135
 H        -2.802379        -0.009049        -2.477533
 H        -2.443636         1.437993        -1.504257
 H        -0.161144        -0.330251        -2.950886
 H         1.357728         1.091476        -1.886672
 H         0.285230         2.298110        -1.805577
 H         0.194582         1.903985         0.481481
 H         1.249969        -0.543106         1.391756
