19
Iteration:  1294
 C        -1.600367        -1.890318        -0.778145
 C        -1.352593        -0.407497        -1.021054
 C        -2.188180         0.513346        -1.872972
 C        -0.635601         0.329245        -2.134975
 C         0.408023         1.196536        -1.561226
 C         0.411452         0.801844         0.001664
 O        -0.926283         0.268500         0.246556
 C         1.565502         0.194099         0.553650
 O         2.741173         0.445065         0.175576
 H        -2.258104        -2.006293         0.080934
 H        -2.092096        -2.404479        -1.645230
 H        -0.574556        -2.353421        -0.586099
 H        -2.838919         0.048435        -2.642082
 H        -2.689288         1.465640        -1.562356
 H        -0.423570        -0.343436        -2.949720
 H         1.295419         0.917099        -1.988572
 H         0.321705         2.217878        -1.713078
 H         0.487467         1.876369         0.560846
 H         1.439871        -0.193419         1.635830
