19
Iteration:  3644charge 0 multiplicity 1
 C        -2.090130        -1.816430        -0.952778
 C        -1.348594        -0.463870        -1.068858
 C        -1.979458         0.657832        -1.856374
 C        -0.640513         0.210947        -2.257264
 C         0.619715         0.818678        -1.769995
 C         0.313161         0.803273        -0.226785
 O        -0.628762        -0.272225         0.140328
 C         1.524874         0.656108         0.839321
 O         2.716093         0.878700         0.703438
 H        -2.990527        -1.758506        -1.641758
 H        -1.450291        -2.630028        -0.975744
 H        -2.544623        -1.718356         0.047364
 H        -2.672259         0.193373        -2.525045
 H        -2.157351         1.622113        -1.354632
 H        -0.578386        -0.511071        -3.106518
 H         1.588069         0.371213        -1.893082
 H         0.720153         1.807243        -2.186868
 H        -0.136164         1.861245         0.063525
 H         1.057370         0.146478         1.786319
