19
Iteration:   524
 C        -1.617691        -1.925911        -0.814861
 C        -1.267787        -0.442650        -0.891044
 C        -2.128275         0.471912        -1.830970
 C        -0.520290         0.214786        -2.038402
 C         0.520909         1.330092        -1.533705
 C         0.357621         1.149780         0.051058
 O        -0.846961         0.260611         0.280389
 C         1.456748         0.215239         0.539266
 O         2.513397         0.248460        -0.040433
 H        -2.379483        -2.183313         0.017863
 H        -2.150790        -2.230056        -1.812836
 H        -0.642658        -2.458049        -0.903192
 H        -2.591137        -0.164169        -2.519439
 H        -2.553251         1.383663        -1.493856
 H        -0.204908        -0.290592        -2.955795
 H         1.427806         1.128661        -1.961752
 H         0.213467         2.296660        -1.967375
 H         0.352534         2.055023         0.656118
 H         1.253014        -0.356180         1.514383
