19
Iteration:  1368
 C        -1.706474        -1.855783        -0.853759
 C        -1.244087        -0.443750        -0.988931
 C        -2.075078         0.461518        -1.789039
 C        -0.588866         0.185849        -2.135552
 C         0.330383         1.298528        -1.546481
 C         0.350026         1.046239        -0.050584
 O        -0.790626         0.150114         0.246207
 C         1.486780         0.270412         0.579372
 O         2.700610         0.362030         0.169033
 H        -2.466916        -1.791630        -0.028382
 H        -2.142279        -2.323170        -1.684953
 H        -0.938821        -2.408577        -0.371585
 H        -2.965426         0.127739        -2.389043
 H        -2.154341         1.577627        -1.590212
 H        -0.350133        -0.402085        -3.012964
 H         1.378516         1.218949        -2.004258
 H         0.001911         2.315663        -1.912182
 H         0.176142         1.872301         0.565646
 H         1.281760        -0.455371         1.393169
