19
Iteration:   115charge 0 multiplicity 1
 C        -1.774568        -1.905308        -0.865736
 C        -1.225731        -0.489902        -0.998736
 C        -2.077629         0.655801        -1.644237
 C        -0.681629         0.227484        -2.128490
 C         0.407254         1.142286        -1.670028
 C         0.346868         1.049089        -0.104896
 O        -0.656985         0.058423         0.165706
 C         1.520030         0.413195         0.671933
 O         2.645045         0.349656         0.221730
 H        -2.746623        -1.878489        -0.220712
 H        -2.090666        -2.186458        -1.966264
 H        -0.918500        -2.555798        -0.448120
 H        -3.007748         0.304096        -2.176299
 H        -2.218124         1.418679        -0.857631
 H        -0.685868        -0.143562        -3.150862
 H         1.415178         0.839607        -2.062349
 H         0.189094         2.276934        -2.101119
 H         0.034331         2.041587         0.345662
 H         1.063893        -0.277987         1.510587
