19
Iteration:  4470
 C        -2.128961        -1.775982        -0.768962
 C        -1.364596        -0.459355        -1.082517
 C        -1.884711         0.738230        -1.807096
 C        -0.644922         0.034494        -2.307671
 C         0.656240         0.701720        -1.768035
 C         0.369785         0.807442        -0.233671
 O        -0.594502        -0.165369         0.037169
 C         1.612834         0.409189         0.444419
 O         2.454169         1.130655         1.030719
 H        -3.226416        -1.679252        -0.947080
 H        -1.778606        -2.428738        -1.598563
 H        -1.874542        -1.966946         0.229835
 H        -2.759449         0.887716        -2.448256
 H        -1.776081         1.639168        -1.202769
 H        -0.665730        -0.644980        -3.136249
 H         1.551622         0.010214        -1.949830
 H         0.827523         1.713990        -2.100473
 H        -0.073833         1.833122         0.100811
 H         1.644107        -0.780986         0.458787
