19
Iteration:  4153
 C        -2.070259        -1.872226        -0.990835
 C        -1.379098        -0.487066        -1.058130
 C        -1.819721         0.755687        -1.855533
 C        -0.458655         0.048320        -2.140659
 C         0.733719         0.681691        -1.589031
 C         0.209064         0.923064        -0.172672
 O        -0.728000        -0.073370         0.213065
 C         1.447140         0.675483         0.800178
 O         2.553515         0.813831         0.404773
 H        -2.749803        -1.764575        -1.900241
 H        -1.318451        -2.767390        -1.071581
 H        -2.623985        -2.031555         0.006758
 H        -2.510066         0.478361        -2.650671
 H        -1.883315         1.613197        -1.164765
 H        -0.576070        -0.407385        -3.157937
 H         1.589984        -0.015017        -1.491308
 H         1.002539         1.676225        -2.043595
 H        -0.339313         1.855666         0.008150
 H         1.264846         0.306497         1.856378
