19
Iteration:   532
 C        -1.579927        -1.910022        -0.803629
 C        -1.240664        -0.370393        -0.984883
 C        -2.101420         0.437984        -1.797887
 C        -0.502843         0.295139        -2.018399
 C         0.466127         1.254217        -1.552266
 C         0.297296         1.040196         0.030828
 O        -0.879048         0.272928         0.283811
 C         1.454947         0.247889         0.562897
 O         2.530299         0.245000        -0.065072
 H        -2.206322        -1.978216         0.070046
 H        -2.070575        -2.227173        -1.635280
 H        -0.720835        -2.583172        -0.660369
 H        -2.722510         0.023197        -2.570543
 H        -2.497136         1.306071        -1.382584
 H        -0.229301        -0.317033        -2.868435
 H         1.548232         1.013489        -1.852927
 H         0.412313         2.360953        -1.846912
 H         0.234210         1.923365         0.708438
 H         1.309531        -0.263125         1.481903
