19
Iteration:  2888charge 0 multiplicity 1
 C        -1.393056        -1.855212        -0.848588
 C        -1.296077        -0.371909        -0.888948
 C        -2.075973         0.401355        -1.830021
 C        -0.586799         0.217405        -2.119678
 C         0.476150         1.258667        -1.531723
 C         0.281214         1.099482         0.019610
 O        -0.945378         0.420647         0.268145
 C         1.395538         0.141536         0.560617
 O         2.552510         0.219251         0.030874
 H        -1.858633        -2.293798         0.118836
 H        -1.885762        -2.254084        -1.676416
 H        -0.259638        -2.066261        -0.777869
 H        -2.758856        -0.125123        -2.512061
 H        -2.489272         1.373247        -1.434749
 H        -0.208324        -0.407734        -2.921622
 H         1.452619         0.830855        -1.787393
 H         0.331891         2.345961        -1.675307
 H         0.197094         1.955814         0.604127
 H         1.147685        -0.801058         1.129855
