19
Iteration:  2852charge 0 multiplicity 1
 C        -1.443257        -1.896946        -0.787115
 C        -1.353223        -0.395559        -0.909258
 C        -2.118840         0.457213        -1.886239
 C        -0.635452         0.264160        -2.124252
 C         0.274741         1.361257        -1.545367
 C         0.331916         1.034944        -0.101007
 O        -0.893698         0.316297         0.238744
 C         1.507702         0.229563         0.543395
 O         2.714809         0.135014         0.204318
 H        -2.271190        -2.307049        -0.315719
 H        -1.263495        -2.549546        -1.636494
 H        -0.592557        -2.060078        -0.128343
 H        -2.776673         0.076322        -2.661145
 H        -2.350251         1.411174        -1.443803
 H        -0.367533        -0.404780        -2.972367
 H         1.315840         1.377934        -2.038279
 H         0.001002         2.478317        -1.762343
 H         0.276482         1.961065         0.369524
 H         1.129594        -0.378021         1.408891
