19
Iteration:  2122
 C        -1.489723        -1.877839        -0.825010
 C        -1.412051        -0.366865        -0.927430
 C        -2.092404         0.490761        -1.942691
 C        -0.593451         0.287401        -2.091038
 C         0.381462         1.251791        -1.529822
 C         0.308152         0.888589         0.029890
 O        -0.975533         0.273766         0.266598
 C         1.606682         0.205831         0.600798
 O         2.677897         0.320087         0.011747
 H        -2.439699        -2.036646        -0.171022
 H        -1.519011        -2.446713        -1.785759
 H        -0.682604        -2.097942        -0.185547
 H        -2.822530        -0.086649        -2.500497
 H        -2.502679         1.386844        -1.473510
 H        -0.290035        -0.283443        -3.014622
 H         1.376113         0.973393        -1.740454
 H         0.131086         2.260821        -1.576642
 H         0.415143         1.932637         0.690727
 H         1.591530        -0.174716         1.707836
