19
Iteration:  3674
 C        -2.036699        -1.821267        -1.063854
 C        -1.417248        -0.486903        -1.020725
 C        -1.922057         0.762583        -1.748531
 C        -0.647566         0.088530        -2.211731
 C         0.613982         0.650361        -1.705764
 C         0.376105         0.829147        -0.225329
 O        -0.639470        -0.096895         0.107902
 C         1.511326         0.465582         0.766617
 O         2.567858         1.056811         0.681276
 H        -3.047526        -1.897473        -1.418078
 H        -1.408805        -2.513218        -1.795954
 H        -1.929255        -2.150339        -0.079600
 H        -2.860423         0.781574        -2.254972
 H        -1.814947         1.681368        -1.181212
 H        -0.613913        -0.699006        -3.006745
 H         1.542362        -0.064395        -1.567798
 H         0.968195         1.573300        -2.278007
 H         0.277686         1.809229         0.095996
 H         1.306735        -0.237324         1.572457
