19
Iteration:   639charge 0 multiplicity 1
 C        -1.490316        -1.926998        -0.770549
 C        -1.323214        -0.433792        -0.948745
 C        -2.083509         0.500987        -1.804310
 C        -0.580849         0.298758        -2.089086
 C         0.372881         1.353989        -1.521698
 C         0.297882         1.013608        -0.084964
 O        -0.864586         0.361157         0.272920
 C         1.469401         0.170968         0.493949
 O         2.615353         0.167731         0.073167
 H        -2.193311        -2.150811         0.022384
 H        -1.859602        -2.478231        -1.587711
 H        -0.477976        -2.317024        -0.459696
 H        -2.584223        -0.053236        -2.582510
 H        -2.484824         1.432812        -1.466284
 H        -0.450700        -0.285488        -2.988362
 H         1.449306         1.216612        -1.869943
 H         0.156019         2.378696        -1.642223
 H         0.310608         1.928164         0.552685
 H         1.176529        -0.378693         1.374728
