19
Iteration:  4226
 C        -1.932403        -1.848590        -0.783747
 C        -1.370880        -0.435507        -1.096347
 C        -2.053350         0.635053        -1.937548
 C        -0.664291         0.075424        -2.332643
 C         0.620056         0.776313        -1.815582
 C         0.357570         0.895322        -0.205142
 O        -0.719206         0.113475         0.084584
 C         1.549827         0.363271         0.683906
 O         2.647319         0.855798         0.926551
 H        -2.817405        -1.994596        -1.265066
 H        -1.070754        -2.508956        -0.942276
 H        -2.176199        -1.893122         0.365496
 H        -2.836310         0.262873        -2.580506
 H        -2.154960         1.581526        -1.406351
 H        -0.634780        -0.635149        -3.216974
 H         1.601212         0.295067        -2.029745
 H         0.781026         1.779113        -2.352120
 H         0.090686         2.070735        -0.028249
 H         1.300128        -0.503589         1.328774
