19
Iteration:  4582
 C        -2.189449        -1.707360        -0.994624
 C        -1.361400        -0.457414        -1.096619
 C        -1.943055         0.750792        -1.770323
 C        -0.630695         0.207356        -2.249425
 C         0.701983         0.497194        -1.675988
 C         0.359767         0.706715        -0.195936
 O        -0.547005        -0.310270         0.087672
 C         1.535640         0.512297         0.777179
 O         2.513368         1.275824         0.711927
 H        -2.956273        -1.629679        -0.121987
 H        -2.631228        -2.060550        -1.914134
 H        -1.651161        -2.560027        -0.569225
 H        -2.834554         0.620396        -2.350208
 H        -1.901929         1.660589        -1.181872
 H        -0.510095        -0.213346        -3.248934
 H         1.242661        -0.507993        -1.832971
 H         1.399139         1.205806        -2.100753
 H         0.089507         1.815064        -0.151638
 H         1.631441        -0.392803         1.349688
