19
Iteration:  4652
 C        -2.147284        -1.742821        -0.962632
 C        -1.363023        -0.467665        -1.058322
 C        -1.900672         0.644873        -1.896609
 C        -0.562994         0.067930        -2.217185
 C         0.714344         0.700077        -1.621868
 C         0.303734         0.872847        -0.208812
 O        -0.634536        -0.178094         0.184116
 C         1.485779         0.566488         0.757401
 O         2.581037         1.022866         0.654937
 H        -1.828103        -2.302745        -0.188892
 H        -3.255376        -1.538751        -0.948128
 H        -1.966644        -2.428879        -1.845225
 H        -2.677984         0.318118        -2.623811
 H        -2.047893         1.614765        -1.376982
 H        -0.355175        -0.592276        -3.109939
 H         1.555100         0.056949        -1.747874
 H         1.067848         1.692174        -2.047209
 H        -0.355376         1.817743        -0.093785
 H         1.376048        -0.357132         1.260867
