19
Iteration:  2272
 C        -1.596989        -1.965443        -0.745259
 C        -1.295460        -0.405307        -0.931438
 C        -2.042451         0.447769        -1.793666
 C        -0.599829         0.346451        -2.121909
 C         0.297753         1.320994        -1.574018
 C         0.313642         1.019616        -0.045409
 O        -0.874829         0.259821         0.236600
 C         1.541077         0.175888         0.380133
 O         2.697815         0.302504         0.258675
 H        -2.522905        -1.950267        -0.452397
 H        -1.443380        -2.443846        -1.707748
 H        -0.872646        -2.385531        -0.003139
 H        -2.759821         0.166902        -2.544227
 H        -2.369004         1.427532        -1.413302
 H        -0.349343        -0.340440        -2.950459
 H         1.332046         1.223021        -2.107040
 H        -0.064345         2.330204        -1.946384
 H         0.395814         1.944766         0.471686
 H         1.079711        -0.762818         0.902998
