19
Iteration:  4311charge 0 multiplicity 1
 C        -2.097888        -1.783260        -0.757862
 C        -1.414460        -0.432564        -1.042591
 C        -2.070013         0.545675        -1.950619
 C        -0.614742        -0.035890        -2.238053
 C         0.524930         0.910061        -1.882969
 C         0.522448         0.915061        -0.258235
 O        -0.733478         0.102863         0.100613
 C         1.784063         0.349794         0.453037
 O         2.599148         0.871036         1.183456
 H        -1.834508        -2.534485        -1.535280
 H        -1.755493        -2.282076         0.100429
 H        -3.218269        -1.749878        -0.620316
 H        -2.849232         0.032948        -2.520181
 H        -2.207013         1.635184        -1.899639
 H        -0.730916        -0.571384        -3.240802
 H         1.428186         0.481896        -2.263128
 H         0.354089         1.935518        -2.286430
 H         0.303397         1.849522         0.263934
 H         2.060599        -0.507222        -0.191669
