19
Iteration:   577
 C        -1.455951        -1.872571        -0.746217
 C        -1.396477        -0.382422        -0.950778
 C        -2.131563         0.542017        -1.939294
 C        -0.710469         0.260530        -2.046448
 C         0.377872         1.346253        -1.525806
 C         0.344517         0.990769        -0.087167
 O        -0.835796         0.190882         0.246927
 C         1.576282         0.281512         0.600352
 O         2.621662         0.130340         0.074331
 H        -2.279665        -1.996084        -0.031716
 H        -1.510108        -2.458733        -1.677836
 H        -0.554089        -2.146532        -0.234503
 H        -2.803058         0.298030        -2.686727
 H        -2.414017         1.449570        -1.492868
 H        -0.276196        -0.463295        -2.743620
 H         1.344896         1.313290        -2.062024
 H         0.105731         2.477867        -1.706173
 H         0.277513         1.970152         0.436743
 H         1.285569        -0.102080         1.587872
