19
Iteration:  2967
 C        -1.527185        -1.897456        -0.746738
 C        -1.232753        -0.356496        -0.821122
 C        -2.021329         0.303414        -1.983411
 C        -0.459601         0.317919        -2.110985
 C         0.239625         1.503453        -1.521977
 C         0.347354         1.186224         0.029066
 O        -0.876604         0.298396         0.342643
 C         1.438448         0.170652         0.499491
 O         2.574039         0.044615         0.003691
 H        -2.514165        -2.339442        -0.274605
 H        -1.788578        -2.218320        -1.809179
 H        -0.651257        -2.491794        -0.508464
 H        -2.546748        -0.364466        -2.723669
 H        -2.436433         1.271961        -1.656239
 H        -0.128433        -0.329023        -2.923621
 H         1.202449         1.656350        -1.954544
 H        -0.245893         2.430510        -1.755494
 H         0.368262         1.976977         0.655757
 H         1.172045        -0.330713         1.468312
