19
Iteration:  2789charge 0 multiplicity 1
 C        -1.651262        -1.904162        -0.794366
 C        -1.263546        -0.436989        -0.932149
 C        -2.000868         0.456661        -1.910984
 C        -0.578926         0.173748        -2.080306
 C         0.386866         1.356197        -1.516497
 C         0.273873         1.063126         0.024348
 O        -0.886252         0.246986         0.270688
 C         1.523001         0.226180         0.533417
 O         2.659506         0.314494         0.042105
 H        -2.513968        -2.020838        -0.093624
 H        -1.815339        -2.251297        -1.784692
 H        -0.745172        -2.496445        -0.357019
 H        -2.809749         0.092936        -2.537090
 H        -2.213609         1.455630        -1.566098
 H        -0.393202        -0.541810        -2.920175
 H         1.467916         1.285238        -1.565438
 H        -0.017957         2.288830        -1.814244
 H         0.132182         2.058094         0.668230
 H         1.273695        -0.585368         1.269398
