19
Iteration:  2640
 C        -1.537839        -1.907317        -0.835517
 C        -1.365930        -0.415255        -0.923804
 C        -2.153545         0.536266        -1.772912
 C        -0.791528         0.314158        -2.116563
 C         0.467467         1.103892        -1.551121
 C         0.379259         0.867607        -0.053295
 O        -0.909925         0.367791         0.185608
 C         1.534257         0.114617         0.535856
 O         2.731816         0.486746         0.225438
 H        -2.480131        -2.386204        -0.505493
 H        -1.350858        -2.177913        -1.813993
 H        -0.716970        -2.193267        -0.310548
 H        -2.848038         0.194582        -2.580732
 H        -2.510569         1.427151        -1.224011
 H        -0.471456        -0.364733        -2.921420
 H         1.434892         0.783339        -2.037478
 H         0.506153         2.187988        -1.955329
 H         0.494060         1.810950         0.466954
 H         1.406466        -0.826124         1.108111
