19
Iteration:  2973charge 0 multiplicity 1
 C        -1.535866        -1.924796        -0.758277
 C        -1.253245        -0.396572        -0.830591
 C        -2.048796         0.319843        -1.941230
 C        -0.467797         0.296904        -2.124268
 C         0.294601         1.465962        -1.477760
 C         0.358683         1.220440        -0.007494
 O        -0.893820         0.319770         0.351255
 C         1.460791         0.166106         0.451288
 O         2.537985         0.053839        -0.004167
 H        -2.419620        -2.314014        -0.398809
 H        -1.510203        -2.198068        -1.870115
 H        -0.707901        -2.576271        -0.391461
 H        -2.572519        -0.277020        -2.666965
 H        -2.540556         1.293370        -1.802476
 H         0.035943        -0.338637        -2.856422
 H         1.396492         1.666061        -1.758133
 H        -0.199160         2.507104        -1.589441
 H         0.350253         2.160010         0.765170
 H         1.160354        -0.195024         1.464068
