19
Iteration:   805charge 0 multiplicity 1
 C        -1.398609        -1.879313        -0.777906
 C        -1.289347        -0.392140        -0.880027
 C        -2.109556         0.444431        -1.914027
 C        -0.638745         0.319547        -2.071862
 C         0.511458         1.255356        -1.465329
 C         0.276923         1.037807         0.041022
 O        -0.955371         0.394362         0.310233
 C         1.478704         0.137900         0.436607
 O         2.536679         0.222399         0.006538
 H        -2.083575        -2.309846        -0.028952
 H        -1.784481        -2.305365        -1.739916
 H        -0.303908        -2.341818        -0.630620
 H        -2.761010        -0.129143        -2.629426
 H        -2.430751         1.457247        -1.629552
 H        -0.255873        -0.385128        -2.804173
 H         1.554229         0.993508        -1.863133
 H         0.380252         2.196025        -1.800586
 H         0.268727         1.964310         0.598743
 H         1.139633        -0.599174         1.227320
