19
Iteration:  1228
 C        -1.663348        -1.909205        -0.819926
 C        -1.307914        -0.406056        -0.937305
 C        -2.106110         0.484898        -1.754548
 C        -0.629923         0.233806        -2.107509
 C         0.354231         1.256231        -1.638855
 C         0.416560         0.932286        -0.053927
 O        -0.856964         0.298194         0.244579
 C         1.561418         0.107018         0.436913
 O         2.688746         0.469365         0.284374
 H        -2.705309        -2.082837        -0.350961
 H        -1.787425        -2.303038        -1.869835
 H        -0.839362        -2.427336        -0.206140
 H        -2.750220         0.074110        -2.575285
 H        -2.385820         1.509376        -1.331077
 H        -0.237308        -0.364034        -2.959396
 H         1.176743         1.226084        -2.247477
 H        -0.006348         2.224662        -1.733912
 H         0.483048         1.806431         0.697340
 H         1.253046        -0.839999         0.811565
