19
Iteration:   236charge 0 multiplicity 1
 C        -1.612378        -1.856853        -0.711020
 C        -1.286685        -0.403528        -0.995196
 C        -2.082083         0.562677        -1.792277
 C        -0.552413         0.268241        -2.111921
 C         0.383378         1.374004        -1.583444
 C         0.297949         1.004939        -0.048989
 O        -0.784477         0.061244         0.265194
 C         1.476028         0.224183         0.541355
 O         2.569294         0.263069         0.080195
 H        -2.342301        -1.941350         0.269877
 H        -1.828053        -2.346276        -1.706567
 H        -0.579244        -2.215630        -0.191286
 H        -2.408718         0.183604        -2.788238
 H        -2.196769         1.664434        -1.602029
 H        -0.345569        -0.264713        -3.018839
 H         1.309964         1.264857        -2.043431
 H        -0.090544         2.362102        -1.720779
 H         0.363301         1.917383         0.575903
 H         1.077784        -0.421600         1.304606
