19
Iteration:  1627
 C        -1.467195        -1.833305        -0.738935
 C        -1.304766        -0.408476        -0.973245
 C        -2.062980         0.396109        -1.934254
 C        -0.620606         0.328657        -2.130173
 C         0.281873         1.364622        -1.455480
 C         0.340009         1.009402         0.035495
 O        -0.915287         0.310498         0.260010
 C         1.544921         0.115378         0.476515
 O         2.677650         0.217104         0.076249
 H        -2.323161        -2.059046         0.078293
 H        -2.022151        -2.292582        -1.567160
 H        -0.487104        -2.304570        -0.382626
 H        -2.625064        -0.250204        -2.631298
 H        -2.498586         1.363771        -1.731842
 H        -0.217063        -0.362587        -2.821590
 H         1.267718         1.468456        -2.035599
 H        -0.310015         2.331668        -1.341451
 H         0.438418         1.961086         0.576517
 H         1.051120        -0.481635         1.302358
