19
Iteration:  3896charge 0 multiplicity 1
 C        -2.124019        -1.672455        -0.865289
 C        -1.390679        -0.474070        -1.090464
 C        -1.994946         0.727309        -1.821179
 C        -0.681231         0.039190        -2.368004
 C         0.682205         0.507686        -1.792321
 C         0.469364         0.731608        -0.352476
 O        -0.597795        -0.103424         0.116460
 C         1.706556         0.412242         0.548346
 O         2.388348         1.251931         1.147079
 H        -2.626665        -1.522319         0.131428
 H        -2.829547        -1.830851        -1.587408
 H        -1.550565        -2.589365        -0.815359
 H        -2.909954         0.488179        -2.413097
 H        -1.781555         1.777385        -1.443854
 H        -0.602775        -0.590311        -3.301108
 H         1.250455        -0.360557        -1.920464
 H         1.157610         1.395351        -2.111777
 H         0.165321         1.736925        -0.081868
 H         2.078695        -0.634207         0.440060
