19
Iteration:  3369charge 0 multiplicity 1
 C        -1.797049        -1.857433        -0.856953
 C        -1.311094        -0.434810        -0.959629
 C        -1.978711         0.545685        -1.912940
 C        -0.525103         0.098435        -2.175317
 C         0.376699         1.187285        -1.616538
 C         0.274997         0.979635        -0.034447
 O        -0.790688         0.140489         0.243798
 C         1.531378         0.318620         0.617910
 O         2.680976         0.512068         0.337775
 H        -2.605484        -2.014148        -1.653483
 H        -0.929952        -2.547203        -1.200246
 H        -2.085981        -2.294511         0.078623
 H        -2.725817         0.118919        -2.585968
 H        -2.283612         1.466534        -1.430128
 H        -0.406565        -0.359425        -3.144635
 H         1.391922         0.927809        -1.868234
 H         0.262959         2.157528        -2.006704
 H         0.085169         2.012387         0.623134
 H         1.210774        -0.468659         1.335041
