19
Iteration:  1702
 C        -1.359333        -1.850885        -0.746617
 C        -1.335762        -0.366505        -0.917205
 C        -2.132628         0.460009        -1.943888
 C        -0.569344         0.339494        -2.137850
 C         0.451578         1.240689        -1.464191
 C         0.266406         1.016802         0.086746
 O        -1.021792         0.245282         0.287628
 C         1.586207         0.297575         0.608310
 O         2.528409         0.148310        -0.124398
 H        -2.021999        -2.168885         0.049331
 H        -1.699984        -2.438682        -1.603484
 H        -0.300691        -2.248186        -0.531151
 H        -2.728559         0.021174        -2.745732
 H        -2.495751         1.436499        -1.598203
 H        -0.069272        -0.322259        -2.820548
 H         1.571533         0.973089        -1.708548
 H         0.170071         2.349440        -1.534837
 H         0.283225         2.104009         0.680925
 H         1.291099        -0.168289         1.557033
