19
Iteration:  2335
 C        -1.606142        -1.870404        -0.858993
 C        -1.435380        -0.420820        -1.011682
 C        -2.093085         0.549642        -1.916826
 C        -0.565940         0.190553        -2.103310
 C         0.390832         1.214974        -1.516243
 C         0.283921         0.975684         0.023612
 O        -0.928019         0.228271         0.346288
 C         1.583418         0.234389         0.570156
 O         2.753172         0.400708         0.045829
 H        -2.266144        -2.156968         0.045689
 H        -2.165717        -2.403282        -1.597243
 H        -0.645987        -2.501950        -0.674308
 H        -2.757224         0.192000        -2.678587
 H        -2.286409         1.544397        -1.527791
 H        -0.108114        -0.515024        -2.836733
 H         1.439170         1.036185        -1.780986
 H         0.036314         2.184751        -1.799334
 H         0.327785         1.751242         0.919235
 H         1.534459        -0.194011         1.599679
