19
Iteration:   913charge 0 multiplicity 1
 C        -1.477630        -1.925584        -0.827843
 C        -1.345177        -0.364220        -0.887077
 C        -2.042337         0.629198        -1.836108
 C        -0.579699         0.175392        -2.071335
 C         0.438397         1.191019        -1.530515
 C         0.278303         1.022855        -0.044160
 O        -0.841809         0.233393         0.259370
 C         1.452398         0.299991         0.607195
 O         2.539425         0.257324         0.007931
 H        -2.361657        -2.293399        -0.359867
 H        -1.502686        -2.228328        -1.872102
 H        -0.586417        -2.467824        -0.362313
 H        -2.829736         0.311296        -2.537808
 H        -2.254386         1.579764        -1.294889
 H        -0.306925        -0.435913        -2.894188
 H         1.519350         1.041608        -1.880481
 H        -0.065573         2.095624        -1.837923
 H         0.208030         1.996821         0.443159
 H         1.326973        -0.310217         1.584723
