19
Iteration:   972charge 0 multiplicity 1
 C        -1.659207        -1.831337        -0.784013
 C        -1.349121        -0.423452        -0.994231
 C        -2.146714         0.408254        -1.974468
 C        -0.602364         0.329511        -2.133673
 C         0.373619         1.303916        -1.475898
 C         0.336523         0.990718         0.018168
 O        -0.828499         0.149436         0.231407
 C         1.626951         0.293787         0.630111
 O         2.699619         0.273967         0.099222
 H        -2.382328        -1.763858         0.134928
 H        -2.310718        -2.334134        -1.614707
 H        -0.739747        -2.331844        -0.448758
 H        -2.839270        -0.173284        -2.599058
 H        -2.569440         1.372018        -1.693610
 H        -0.101081        -0.292208        -2.934944
 H         1.291425         1.202311        -2.000508
 H         0.106402         2.275100        -1.722626
 H         0.188324         1.852896         0.565304
 H         1.471993         0.041546         1.776573
