19
Iteration:  1075charge 0 multiplicity 1
 C        -1.453134        -1.918874        -0.740468
 C        -1.404530        -0.356910        -0.936349
 C        -2.152405         0.660406        -1.842820
 C        -0.643751         0.248122        -2.111564
 C         0.384948         1.135873        -1.533532
 C         0.327998         0.860068        -0.053115
 O        -0.966287         0.309050         0.169176
 C         1.605033         0.069886         0.508748
 O         2.692385         0.464158         0.180718
 H        -2.254248        -2.324089        -0.026379
 H        -1.398327        -2.383175        -1.705138
 H        -0.510087        -2.253813        -0.164791
 H        -2.836932         0.225696        -2.611305
 H        -2.454515         1.626093        -1.374233
 H        -0.543826        -0.274541        -3.072548
 H         1.418629         0.831231        -1.780888
 H         0.119651         2.214987        -1.927969
 H         0.449737         1.779691         0.530771
 H         1.420869        -0.703488         1.230856
