19
Iteration:   169charge 0 multiplicity 1
 C        -1.601745        -1.910429        -0.934055
 C        -1.321645        -0.419452        -0.983504
 C        -2.210431         0.591284        -1.807002
 C        -0.689531         0.292033        -2.113350
 C         0.426595         1.099977        -1.490441
 C         0.341105         0.934944         0.010850
 O        -0.856023         0.195495         0.254300
 C         1.617047         0.417065         0.691358
 O         2.664755         0.269477         0.035621
 H        -2.115439        -2.161219         0.094051
 H        -2.072585        -2.231157        -1.965748
 H        -0.584121        -2.490718        -0.836695
 H        -2.825143         0.343820        -2.701141
 H        -2.256843         1.655957        -1.419107
 H        -0.496235        -0.393392        -2.932899
 H         1.360866         0.648924        -1.674901
 H         0.410863         2.163391        -1.779471
 H         0.181283         1.924736         0.484231
 H         1.721192         0.514539         1.793506
