19
Iteration:  1728
 C        -1.328109        -1.881059        -0.839245
 C        -1.303471        -0.362112        -0.911006
 C        -2.129053         0.472180        -1.894926
 C        -0.617276         0.309648        -2.054162
 C         0.362355         1.252938        -1.473477
 C         0.279088         1.056571         0.042412
 O        -0.942940         0.319492         0.264132
 C         1.471108         0.230412         0.588983
 O         2.576845         0.127945        -0.084629
 H        -2.319864        -2.180251        -0.169909
 H        -1.181788        -2.562107        -1.725256
 H        -0.509254        -2.210148        -0.196532
 H        -2.701761        -0.002606        -2.705797
 H        -2.527418         1.434655        -1.539224
 H        -0.095319        -0.368581        -2.770301
 H         1.367434         0.928025        -1.734814
 H         0.237603         2.297952        -1.745522
 H         0.407519         1.968219         0.720542
 H         1.357350         0.076328         1.671757
