19
Iteration:  1040charge 0 multiplicity 1
 C        -1.548748        -1.873262        -0.815492
 C        -1.229462        -0.360790        -0.896222
 C        -2.077252         0.467511        -1.824682
 C        -0.629751         0.288085        -2.122079
 C         0.412759         1.177275        -1.551514
 C         0.276811         1.049110        -0.024891
 O        -0.861693         0.252316         0.303197
 C         1.450100         0.154892         0.440874
 O         2.640837         0.389568         0.156982
 H        -2.520731        -2.076068        -0.139261
 H        -2.022048        -2.171705        -1.785224
 H        -0.678245        -2.532281        -0.593859
 H        -2.761329        -0.115136        -2.385558
 H        -2.445689         1.428375        -1.475380
 H        -0.388558        -0.326681        -2.983636
 H         1.304063         0.765356        -1.841275
 H         0.543256         2.202616        -1.964932
 H         0.404823         1.930079         0.470441
 H         1.249003        -0.715265         1.058217
