19
Iteration:  3188
 C        -1.577164        -1.899630        -0.760555
 C        -1.214382        -0.403748        -0.922007
 C        -2.032469         0.440970        -1.995087
 C        -0.483238         0.222733        -2.032396
 C         0.234733         1.406588        -1.540641
 C         0.332953         1.067483         0.006657
 O        -0.833093         0.278426         0.332131
 C         1.426902         0.170380         0.468708
 O         2.586238         0.241706         0.099467
 H        -1.408600        -2.437122         0.145375
 H        -2.587633        -2.072904        -1.106471
 H        -1.103716        -2.502187        -1.604126
 H        -2.667664        -0.021383        -2.735436
 H        -2.221249         1.457398        -1.792418
 H         0.009329        -0.435758        -2.741910
 H         1.269326         1.311946        -1.861222
 H        -0.230573         2.373859        -1.679525
 H         0.486888         1.999036         0.698144
 H         1.159364        -0.565878         1.268105
