19
Iteration:  2458charge 0 multiplicity 1
 C        -1.632604        -1.926530        -0.903764
 C        -1.324848        -0.387082        -0.936919
 C        -2.185029         0.503303        -1.780211
 C        -0.723019         0.281800        -2.150406
 C         0.406531         1.166874        -1.618195
 C         0.398263         1.086915        -0.057909
 O        -0.855046         0.186307         0.276081
 C         1.614230         0.341118         0.591341
 O         2.727429         0.323557         0.238673
 H        -2.588607        -2.254762        -0.593341
 H        -1.486843        -2.498085        -1.925385
 H        -0.898529        -2.585145        -0.288454
 H        -3.071091         0.166631        -2.323714
 H        -2.493869         1.401301        -1.204601
 H        -0.400331        -0.350432        -2.969401
 H         1.283238         0.709752        -2.128675
 H         0.552789         2.187102        -1.939714
 H         0.264841         2.095208         0.230371
 H         1.245661        -0.335883         1.375615
