19
Iteration:  2692charge 0 multiplicity 1
 C        -1.631253        -1.888164        -0.740446
 C        -1.259920        -0.449388        -0.998684
 C        -2.131716         0.525622        -1.835208
 C        -0.700518         0.229263        -2.190829
 C         0.310841         1.336073        -1.591712
 C         0.403840         1.026973        -0.116768
 O        -0.731262         0.178180         0.242450
 C         1.522087         0.217484         0.507084
 O         2.700643         0.301755         0.320112
 H        -2.557427        -1.791958        -0.031852
 H        -1.960389        -2.378874        -1.653523
 H        -0.718111        -2.423937        -0.236407
 H        -2.848201        -0.044910        -2.426329
 H        -2.547468         1.470386        -1.497400
 H        -0.332763        -0.163353        -3.150836
 H         1.250055         1.454045        -2.147677
 H        -0.242063         2.261385        -1.823695
 H         0.225136         1.927773         0.508780
 H         1.077383        -0.483105         1.249493
