19
Iteration:  3024charge 0 multiplicity 1
 C        -1.320049        -1.936519        -0.690246
 C        -1.309033        -0.367787        -0.959157
 C        -2.062989         0.532767        -1.978534
 C        -0.500043         0.348536        -2.064492
 C         0.404771         1.308001        -1.438373
 C         0.261254         0.982661         0.059916
 O        -0.957141         0.322836         0.276023
 C         1.433677         0.264478         0.528471
 O         2.473528         0.089509        -0.159772
 H        -2.279733        -2.456798        -0.361526
 H        -0.416466        -2.583628        -1.169180
 H        -0.957473        -2.003657         0.386611
 H        -2.820170         0.145532        -2.624831
 H        -2.441854         1.475543        -1.583243
 H        -0.272083        -0.247439        -2.963397
 H         1.431436         1.071063        -1.634878
 H         0.180062         2.321242        -1.480732
 H         0.183824         1.767626         0.726639
 H         1.231520        -0.189202         1.525355
