19
Iteration:  1229charge 0 multiplicity 1
 C        -1.667678        -1.907000        -0.812961
 C        -1.304729        -0.401640        -0.939537
 C        -2.099481         0.480771        -1.744288
 C        -0.626073         0.234209        -2.107761
 C         0.349180         1.263826        -1.638781
 C         0.418625         0.937385        -0.062567
 O        -0.853697         0.289990         0.244745
 C         1.543992         0.104690         0.440231
 O         2.692733         0.467568         0.285610
 H        -2.698035        -2.105870        -0.372637
 H        -1.780725        -2.284308        -1.909730
 H        -0.833406        -2.456220        -0.197273
 H        -2.717617         0.080090        -2.563467
 H        -2.348860         1.506093        -1.335438
 H        -0.272798        -0.379224        -2.949465
 H         1.182191         1.227717        -2.287628
 H        -0.019234         2.270271        -1.749334
 H         0.468321         1.797584         0.637578
 H         1.238102        -0.832015         0.826874
