19
Iteration:  2146charge 0 multiplicity 1
 C        -1.543453        -1.890207        -0.798297
 C        -1.310563        -0.408061        -0.932515
 C        -2.155808         0.446040        -1.929664
 C        -0.561902         0.222384        -2.084034
 C         0.298010         1.338937        -1.519475
 C         0.318895         1.048593        -0.006214
 O        -0.854820         0.261308         0.266314
 C         1.512185         0.211334         0.505647
 O         2.729754         0.251125         0.124401
 H        -2.360623        -1.969115         0.056153
 H        -1.990729        -2.196631        -1.770818
 H        -0.674283        -2.375686        -0.557441
 H        -2.766700        -0.047860        -2.709458
 H        -2.517876         1.454918        -1.612921
 H        -0.218323        -0.161578        -3.001666
 H         1.288216         1.145001        -1.834391
 H        -0.123315         2.358526        -1.524760
 H         0.378477         2.016627         0.735363
 H         1.306191        -0.568919         1.331106
