19
Iteration:  3110charge 0 multiplicity 1
 C        -1.295359        -1.819224        -0.694496
 C        -1.275376        -0.382439        -0.965605
 C        -2.100593         0.413107        -1.969568
 C        -0.604692         0.294440        -2.057551
 C         0.244437         1.427305        -1.479729
 C         0.276175         1.042568        -0.004753
 O        -0.921393         0.338391         0.251776
 C         1.482921         0.114842         0.467219
 O         2.604665         0.065225         0.048001
 H        -2.393188        -1.981211        -0.448143
 H        -0.968770        -2.438829        -1.452920
 H        -0.778700        -1.985018         0.248218
 H        -2.776956        -0.004373        -2.707589
 H        -2.353159         1.361799        -1.458892
 H        -0.265409        -0.192935        -3.025907
 H         1.287483         1.271971        -1.771009
 H         0.036146         2.474633        -1.649454
 H         0.338845         1.911808         0.735515
 H         1.209506        -0.484011         1.369043
