19
Iteration:   179
 C        -1.612579        -1.950902        -0.912997
 C        -1.421568        -0.429728        -0.947166
 C        -2.146518         0.548230        -1.845924
 C        -0.666900         0.291047        -2.067051
 C         0.506918         1.192993        -1.536797
 C         0.351504         0.885472         0.023932
 O        -0.875546         0.243694         0.281152
 C         1.649491         0.462810         0.657570
 O         2.650805         0.248422         0.045951
 H        -2.301230        -2.482268        -0.185296
 H        -2.265999        -2.240481        -1.852187
 H        -0.630515        -2.476278        -1.070521
 H        -2.884844         0.208413        -2.618601
 H        -2.559177         1.459722        -1.306111
 H        -0.437047        -0.197958        -3.025724
 H         1.397100         0.862583        -1.947447
 H         0.495376         2.207632        -1.773503
 H         0.280153         1.846942         0.541261
 H         1.582206         0.421255         1.737027
