19
Iteration:  4910charge 0 multiplicity 1
 C        -1.794102        -1.857921        -0.819107
 C        -1.230366        -0.508059        -1.050507
 C        -1.885318         0.341665        -2.145827
 C        -0.349528        -0.000509        -2.180969
 C         0.636982         1.070801        -1.682896
 C         0.234718         1.077245        -0.144695
 O        -0.924469         0.352290         0.111735
 C         1.314760         0.419474         0.878059
 O         2.526724         0.538685         0.629476
 H        -1.927042        -2.076791         0.322296
 H        -2.795587        -2.020814        -1.037966
 H        -1.401771        -2.732897        -1.356445
 H        -2.578617        -0.102582        -2.855282
 H        -2.129783         1.367836        -1.877013
 H        -0.134402        -0.584103        -3.159250
 H         1.761432         0.900439        -1.671749
 H         0.504683         2.081528        -2.161502
 H         0.027654         2.064739         0.187208
 H         0.916416        -0.170689         1.701995
