19
Iteration:   447charge 0 multiplicity 1
 C        -1.500731        -1.877771        -0.702669
 C        -1.253096        -0.424384        -0.948420
 C        -2.167560         0.439561        -1.922165
 C        -0.634489         0.357978        -2.081493
 C         0.497344         1.353852        -1.501192
 C         0.312651         1.052139         0.012967
 O        -0.944984         0.269651         0.236165
 C         1.534716         0.183192         0.505764
 O         2.625562         0.208020         0.020000
 H        -2.494422        -1.944798        -0.046307
 H        -1.752692        -2.543416        -1.614058
 H        -0.861133        -2.346115         0.123975
 H        -2.660023        -0.110831        -2.659797
 H        -2.601936         1.243092        -1.477610
 H        -0.430937        -0.119053        -3.047381
 H         1.349830         0.891911        -1.786474
 H         0.378632         2.388837        -1.748725
 H         0.349369         1.935942         0.660247
 H         1.371180        -0.565362         1.325606
