19
Iteration:  2910charge 0 multiplicity 1
 C        -1.373584        -1.955926        -0.696820
 C        -1.236350        -0.345762        -0.971288
 C        -2.089572         0.481578        -1.949219
 C        -0.554089         0.356289        -2.043696
 C         0.407818         1.296230        -1.450945
 C         0.269031         1.038440        -0.013372
 O        -1.024488         0.335559         0.243492
 C         1.452486         0.124749         0.538375
 O         2.568546         0.192716        -0.005425
 H        -1.608778        -1.902646         0.390415
 H        -2.119659        -2.427728        -1.219206
 H        -0.414854        -2.528957        -0.730993
 H        -2.538920         0.008674        -2.838500
 H        -2.554176         1.473102        -1.737821
 H        -0.189107        -0.272268        -2.833796
 H         1.393555         0.940610        -1.766331
 H         0.172152         2.329387        -1.761737
 H         0.310663         1.941978         0.435378
 H         1.328459        -0.475044         1.480647
