19
Iteration:  4392
 C        -1.851097        -1.843131        -0.802203
 C        -1.420282        -0.422590        -1.018712
 C        -2.091249         0.652523        -1.907897
 C        -0.727918         0.084477        -2.302161
 C         0.563821         0.642206        -1.796307
 C         0.436224         0.890830        -0.366403
 O        -0.698858         0.188333         0.122092
 C         1.736565         0.316351         0.416589
 O         2.487329         0.928021         1.211269
 H        -2.660346        -1.888983        -1.485132
 H        -0.990232        -2.571979        -1.010525
 H        -2.402046        -2.010632         0.116011
 H        -2.987661         0.443691        -2.508094
 H        -2.005222         1.620575        -1.389442
 H        -0.733594        -0.538116        -3.158271
 H         1.379512        -0.113673        -2.001181
 H         0.960235         1.508126        -2.380824
 H         0.181296         2.065506        -0.077701
 H         1.894567        -0.719632         0.108880
