19
Iteration:  1957
 C        -1.492358        -1.945321        -0.783393
 C        -1.285630        -0.358962        -0.892937
 C        -2.030116         0.529305        -1.853613
 C        -0.571474         0.218546        -2.055373
 C         0.464356         1.255381        -1.560293
 C         0.275795         1.062818         0.028158
 O        -0.932546         0.287406         0.277354
 C         1.391568         0.172925         0.479073
 O         2.606219         0.322298         0.040123
 H        -2.387765        -2.382080        -0.217230
 H        -1.670200        -2.235206        -1.842519
 H        -0.546140        -2.442207        -0.402891
 H        -2.676949        -0.020235        -2.490344
 H        -2.308681         1.426498        -1.290350
 H        -0.284012        -0.432873        -2.872775
 H         1.560540         1.089040        -1.758775
 H         0.123758         2.316925        -1.899182
 H         0.299287         1.948356         0.552285
 H         1.084883        -0.747880         0.991990
