19
Iteration:  3285
 C        -1.519936        -1.939038        -0.893842
 C        -1.331875        -0.369033        -0.898326
 C        -2.045993         0.548559        -1.829066
 C        -0.561159         0.190066        -2.126550
 C         0.490447         1.099962        -1.620187
 C         0.274322         1.062721        -0.065406
 O        -0.913715         0.262398         0.288323
 C         1.428995         0.248723         0.556575
 O         2.628031         0.391374         0.255904
 H        -0.799917        -2.408160        -1.612500
 H        -1.353084        -2.354875         0.033782
 H        -2.558380        -2.215329        -1.123301
 H        -2.611191         0.253474        -2.697508
 H        -2.307566         1.443496        -1.315078
 H        -0.413181        -0.289003        -3.073486
 H         1.525363         0.845384        -1.935734
 H         0.123783         2.148775        -1.909042
 H         0.005100         2.050077         0.343594
 H         1.145272        -0.548040         1.301252
