19
Iteration:  3185charge 0 multiplicity 1
 C        -1.592509        -1.912588        -0.766036
 C        -1.242256        -0.399213        -0.919135
 C        -2.025272         0.425775        -1.979061
 C        -0.467416         0.218993        -2.043515
 C         0.241053         1.402199        -1.524997
 C         0.324883         1.065002        -0.011991
 O        -0.840228         0.295064         0.357745
 C         1.456917         0.164942         0.466341
 O         2.561539         0.241156         0.089160
 H        -1.348582        -2.419271         0.181545
 H        -2.462828        -2.133669        -1.221109
 H        -0.968229        -2.307736        -1.533132
 H        -2.683070        -0.039339        -2.735822
 H        -2.158876         1.521932        -1.771213
 H         0.068124        -0.410195        -2.834788
 H         1.305652         1.289061        -1.857877
 H        -0.167872         2.449037        -1.787018
 H         0.431593         1.955325         0.728996
 H         1.098785        -0.580869         1.214580
