19
Iteration:   121
 C        -1.713774        -1.939148        -0.857956
 C        -1.265959        -0.479751        -0.982355
 C        -2.070643         0.700841        -1.675407
 C        -0.689437         0.254050        -2.057949
 C         0.431500         1.153264        -1.651988
 C         0.408000         1.058576        -0.108725
 O        -0.655152         0.035965         0.157993
 C         1.473953         0.378718         0.622814
 O         2.577470         0.359498         0.204961
 H        -2.529498        -1.847023        -0.243874
 H        -2.033624        -2.233600        -1.825500
 H        -1.072931        -2.644140        -0.433981
 H        -2.910027         0.281233        -2.159685
 H        -2.227368         1.523836        -1.018446
 H        -0.611904        -0.170347        -3.073158
 H         1.363201         0.795423        -2.068377
 H         0.224364         2.056592        -1.981538
 H         0.067303         2.005077         0.250249
 H         1.105393        -0.132185         1.474739
