19
Iteration:  4116charge 0 multiplicity 1
 C        -2.093379        -1.680889        -0.964519
 C        -1.367097        -0.450661        -1.042522
 C        -1.880630         0.696969        -1.939464
 C        -0.548484         0.004463        -2.228269
 C         0.639902         0.742925        -1.568996
 C         0.217582         0.797371        -0.050672
 O        -0.651490        -0.293070         0.174210
 C         1.513072         0.794990         0.797608
 O         2.660037         0.831160         0.472006
 H        -2.189691        -2.118539        -1.952027
 H        -1.652610        -2.501484        -0.319145
 H        -3.234660        -1.451882        -0.696300
 H        -2.700277         0.499750        -2.614573
 H        -2.098801         1.658126        -1.527178
 H        -0.375494        -0.366419        -3.210523
 H         1.602564         0.191225        -1.653648
 H         0.840249         1.676922        -2.147119
 H        -0.249266         1.699505         0.050489
 H         1.168460         0.721682         1.893416
