19
Iteration:  4482charge 0 multiplicity 1
 C        -2.195309        -1.747517        -0.886195
 C        -1.386633        -0.488635        -1.071052
 C        -1.914880         0.743804        -1.841863
 C        -0.609556         0.087934        -2.220675
 C         0.624298         0.692691        -1.731573
 C         0.397518         0.828526        -0.235290
 O        -0.559277        -0.223091         0.101248
 C         1.651535         0.421100         0.482513
 O         2.437835         1.157404         0.979013
 H        -3.333426        -1.564023        -0.834028
 H        -1.938912        -2.700671        -1.350932
 H        -2.001021        -2.107803         0.087580
 H        -2.779954         0.302085        -2.347831
 H        -1.826602         1.798325        -1.590265
 H        -0.495514        -0.283133        -3.263943
 H         1.462417        -0.097124        -1.913335
 H         0.958441         1.518273        -2.313053
 H         0.189429         1.969730         0.083856
 H         1.914143        -0.739771         0.420630
