19
Iteration:  4770charge 0 multiplicity 1
 C        -1.868743        -1.859901        -0.759948
 C        -1.300239        -0.475552        -1.101781
 C        -1.926146         0.577754        -2.088694
 C        -0.486708         0.035816        -2.247247
 C         0.600597         0.905083        -1.701483
 C         0.333453         0.879427        -0.114281
 O        -0.806270         0.114107         0.075487
 C         1.387160         0.467887         0.841924
 O         2.534839         0.732416         0.667684
 H        -2.375011        -2.390014        -1.676867
 H        -1.058040        -2.276097        -0.193916
 H        -2.575768        -1.625522         0.146429
 H        -2.651166         0.291254        -2.854735
 H        -2.060776         1.642816        -1.768643
 H        -0.242627        -0.562505        -3.211047
 H         1.608427         0.586876        -1.961520
 H         0.575208         1.956102        -2.162027
 H         0.259451         1.948994         0.297117
 H         0.995807         0.005524         1.751043
