19
Iteration:  2735charge 0 multiplicity 1
 C        -1.682222        -1.911197        -0.774331
 C        -1.280590        -0.374880        -0.989018
 C        -2.065144         0.495200        -1.997049
 C        -0.554675         0.229613        -2.080068
 C         0.395597         1.194125        -1.447187
 C         0.336657         0.962676         0.094801
 O        -0.938348         0.234838         0.271083
 C         1.531537         0.232411         0.530090
 O         2.698588         0.415622         0.027043
 H        -2.084675        -1.990090         0.294634
 H        -2.426811        -2.321510        -1.437596
 H        -0.636073        -2.420875        -0.902059
 H        -2.718781        -0.080801        -2.665780
 H        -2.448566         1.427228        -1.615290
 H        -0.379275        -0.400064        -2.973798
 H         1.422236         1.160146        -1.730992
 H         0.288350         2.194120        -1.644316
 H         0.264475         2.022485         0.641922
 H         1.385546        -0.445277         1.401180
