19
Iteration:  2053
 C        -1.599543        -1.883327        -0.814282
 C        -1.260108        -0.405517        -0.993641
 C        -2.088538         0.470995        -1.857440
 C        -0.596441         0.198363        -2.117078
 C         0.273870         1.381947        -1.522644
 C         0.368501         1.042984        -0.042415
 O        -0.795025         0.246934         0.252716
 C         1.479093         0.208673         0.582079
 O         2.690095         0.254266         0.138962
 H        -2.381555        -1.947692        -0.130692
 H        -1.931741        -2.273190        -1.768103
 H        -0.654890        -2.494711        -0.429345
 H        -2.833978        -0.112942        -2.370784
 H        -2.353742         1.400530        -1.352446
 H        -0.148130        -0.370436        -2.924369
 H         1.187944         1.199524        -2.095437
 H        -0.214542         2.266841        -1.753769
 H         0.068478         2.045023         0.585088
 H         1.031533        -0.416758         1.346091
