19
Iteration:  4151charge 0 multiplicity 1
 C        -2.075704        -1.859900        -0.996382
 C        -1.388824        -0.481761        -1.051650
 C        -1.823795         0.747346        -1.861345
 C        -0.463351         0.041471        -2.161941
 C         0.750451         0.685483        -1.583007
 C         0.224919         0.921682        -0.142730
 O        -0.715312        -0.085198         0.218437
 C         1.431007         0.686890         0.814556
 O         2.542193         0.813249         0.383848
 H        -2.671118        -1.783055        -1.909774
 H        -1.316158        -2.797629        -1.049578
 H        -2.674976        -2.006399         0.062727
 H        -2.532208         0.517869        -2.631450
 H        -1.840897         1.578969        -1.182117
 H        -0.539148        -0.363506        -3.207304
 H         1.594990        -0.020785        -1.483352
 H         0.965365         1.710535        -2.075523
 H        -0.304090         1.816102        -0.051975
 H         1.242129         0.295204         1.878269
