19
Iteration:  2387charge 0 multiplicity 1
 C        -1.644213        -1.846052        -0.813577
 C        -1.264661        -0.437679        -0.970376
 C        -2.052144         0.491005        -1.857210
 C        -0.614670         0.254874        -2.091209
 C         0.442245         1.209753        -1.525910
 C         0.303529         1.036495        -0.079068
 O        -0.840492         0.125397         0.259532
 C         1.526213         0.318537         0.594634
 O         2.619157         0.370862         0.109523
 H        -2.121347        -2.038077         0.320240
 H        -2.469151        -2.157395        -1.440669
 H        -0.891320        -2.567180        -1.087355
 H        -2.903680         0.177409        -2.415438
 H        -2.323101         1.460934        -1.410869
 H        -0.209603        -0.383970        -2.912349
 H         1.465307         1.054232        -1.822440
 H         0.254819         2.262105        -1.792350
 H         0.217949         1.939078         0.535541
 H         1.173709        -0.525204         1.220453
