19
Iteration:  1522charge 0 multiplicity 1
 C        -1.606838        -1.893062        -0.741393
 C        -1.311546        -0.408505        -0.933709
 C        -2.085525         0.426241        -1.990850
 C        -0.672595         0.290280        -2.175181
 C         0.225682         1.377284        -1.511305
 C         0.345205         0.977361        -0.034462
 O        -0.843659         0.240727         0.205430
 C         1.586546         0.246261         0.574775
 O         2.809864         0.240538         0.200856
 H        -2.254469        -1.828975         0.099600
 H        -2.089451        -2.261733        -1.654631
 H        -0.683953        -2.437999        -0.581786
 H        -2.890288        -0.162822        -2.560427
 H        -2.471804         1.382117        -1.560201
 H        -0.342001        -0.430197        -2.940678
 H         1.214674         1.396242        -2.071756
 H        -0.310698         2.381366        -1.470323
 H         0.282385         1.958621         0.713413
 H         1.328649        -0.404743         1.457650
