19
Iteration:  4895charge 0 multiplicity 1
 C        -1.782229        -1.809820        -0.716454
 C        -1.293035        -0.409012        -1.096664
 C        -1.871894         0.378020        -2.219394
 C        -0.370597         0.043866        -2.216117
 C         0.607051         1.019857        -1.570120
 C         0.292457         1.031782        -0.067711
 O        -0.909305         0.188970         0.071368
 C         1.297864         0.468501         0.782177
 O         2.525763         0.570473         0.622123
 H        -1.751123        -1.794235         0.324249
 H        -2.830420        -1.925640        -1.277626
 H        -1.059684        -2.515672        -1.069464
 H        -2.452280        -0.171223        -2.953965
 H        -2.243548         1.377467        -2.016512
 H         0.033087        -0.764032        -2.727873
 H         1.566128         0.587926        -1.896413
 H         0.393123         1.982477        -1.945626
 H         0.136734         2.063311         0.284019
 H         0.791885        -0.176686         1.632554
