19
Iteration:   234
 C        -1.610561        -1.858793        -0.717759
 C        -1.281298        -0.387082        -0.982256
 C        -2.064798         0.561280        -1.788151
 C        -0.562851         0.268070        -2.120281
 C         0.377034         1.358609        -1.577410
 C         0.309019         1.023973        -0.051877
 O        -0.778362         0.057126         0.264622
 C         1.471638         0.223423         0.542216
 O         2.564997         0.263164         0.082877
 H        -2.288342        -1.968417         0.205024
 H        -1.887338        -2.359809        -1.717593
 H        -0.635872        -2.211773        -0.246332
 H        -2.479371         0.088655        -2.757103
 H        -2.222934         1.720631        -1.596863
 H        -0.338154        -0.281092        -3.016148
 H         1.312505         1.316998        -2.031880
 H        -0.071156         2.272386        -1.701409
 H         0.324069         1.956388         0.510496
 H         1.046161        -0.455750         1.326332
