19
Iteration:  3870
 C        -2.118304        -1.803873        -0.989576
 C        -1.536201        -0.401885        -0.948680
 C        -1.853525         0.883203        -1.787437
 C        -0.712230        -0.062970        -2.248981
 C         0.698834         0.382684        -1.862297
 C         0.487246         0.848822        -0.425077
 O        -0.602822        -0.137446         0.165378
 C         1.728828         0.494294         0.510669
 O         2.368953         1.261925         1.177356
 H        -2.325751        -2.271759        -0.039445
 H        -3.150372        -1.787437        -1.568931
 H        -1.470977        -2.398371        -1.591597
 H        -2.642311         0.662240        -2.475362
 H        -1.713455         1.883325        -1.467270
 H        -0.797558        -0.637645        -3.137528
 H         1.357474        -0.476889        -1.797979
 H         1.088742         1.202759        -2.524793
 H         0.075644         1.872977        -0.072007
 H         1.990735        -0.616973         0.433445
