19
Iteration:  3282charge 0 multiplicity 1
 C        -1.504179        -1.937221        -0.907487
 C        -1.296013        -0.373942        -0.902729
 C        -2.030492         0.569068        -1.846879
 C        -0.562165         0.182440        -2.109182
 C         0.474912         1.101332        -1.635629
 C         0.288172         1.024790        -0.014148
 O        -0.942023         0.258797         0.305142
 C         1.434753         0.289455         0.545665
 O         2.602012         0.383978         0.240826
 H        -0.718689        -2.334501        -1.645775
 H        -1.432171        -2.331050         0.205735
 H        -2.534337        -2.095975        -1.090430
 H        -2.693395         0.179361        -2.667720
 H        -2.325026         1.476602        -1.308382
 H        -0.357239        -0.306378        -3.108948
 H         1.479311         0.801964        -1.948250
 H         0.145606         2.119588        -1.926874
 H         0.158166         2.014129         0.215684
 H         1.059973        -0.589728         1.182906
