19
Iteration:  2860
 C        -1.403470        -1.897640        -0.811307
 C        -1.292070        -0.386996        -0.869175
 C        -2.094595         0.486185        -1.913225
 C        -0.672864         0.184839        -2.086139
 C         0.334743         1.343769        -1.573633
 C         0.313248         1.018703        -0.097874
 O        -0.891719         0.363541         0.283763
 C         1.494598         0.216602         0.463843
 O         2.627686         0.159320         0.204812
 H        -2.253496        -2.258397        -0.196871
 H        -1.243098        -2.203021        -1.946672
 H        -0.536751        -2.252709        -0.295429
 H        -2.812538         0.171124        -2.678808
 H        -2.490723         1.341609        -1.371482
 H        -0.302899        -0.372845        -2.931348
 H         1.291005         1.097977        -2.036114
 H        -0.061478         2.378110        -1.623605
 H         0.371659         1.920089         0.703312
 H         1.108754        -0.289783         1.399983
