19
Iteration:  4058
 C        -2.040268        -1.796624        -0.960363
 C        -1.365299        -0.421899        -1.027795
 C        -1.955154         0.738358        -1.793263
 C        -0.629464         0.100890        -2.255931
 C         0.672218         0.670117        -1.768918
 C         0.326993         0.833845        -0.261324
 O        -0.651713        -0.115939         0.174981
 C         1.488475         0.559580         0.722010
 O         2.606494         0.932622         0.725206
 H        -1.798292        -2.497987        -1.847699
 H        -1.676788        -2.226291        -0.067067
 H        -3.076934        -1.671791        -0.718180
 H        -2.825814         0.333857        -2.368141
 H        -1.897710         1.791866        -1.364609
 H        -0.548175        -0.595572        -3.130825
 H         1.374243        -0.194234        -1.882847
 H         0.950015         1.627795        -2.174137
 H         0.052395         1.811703        -0.037052
 H         1.213966        -0.160390         1.538319
