19
Iteration:  1267
 C        -1.636760        -1.858058        -0.779360
 C        -1.313280        -0.433861        -0.977322
 C        -2.141555         0.498528        -1.801655
 C        -0.653793         0.258291        -2.170835
 C         0.290563         1.261715        -1.622850
 C         0.352799         1.086519        -0.015274
 O        -0.790663         0.138987         0.221624
 C         1.551947         0.264392         0.513565
 O         2.775835         0.314853         0.296474
 H        -2.524641        -1.984556        -0.162250
 H        -1.718489        -2.412347        -1.704118
 H        -0.797649        -2.328015        -0.356346
 H        -2.920961         0.150432        -2.473793
 H        -2.357792         1.512979        -1.543888
 H        -0.484891        -0.424956        -3.014986
 H         1.364428         0.997992        -2.101996
 H        -0.031877         2.375402        -1.832725
 H         0.150979         2.071308         0.324925
 H         1.172362        -0.665839         1.017007
