19
Iteration:  1248charge 0 multiplicity 1
 C        -1.636070        -1.887630        -0.833025
 C        -1.252181        -0.446248        -0.859640
 C        -2.072935         0.531427        -1.796978
 C        -0.657237         0.184719        -2.131286
 C         0.316380         1.323234        -1.663144
 C         0.305370         1.029816        -0.181236
 O        -0.731006         0.189673         0.282927
 C         1.489163         0.179791         0.389039
 O         2.700619         0.358264         0.347315
 H        -2.666100        -1.900661        -0.365011
 H        -1.744766        -2.271891        -1.777739
 H        -0.954773        -2.420951        -0.208555
 H        -3.023083         0.118380        -2.227719
 H        -2.332022         1.501261        -1.269382
 H        -0.368031        -0.278210        -3.113268
 H         1.355033         1.350818        -1.832885
 H        -0.075472         2.261496        -1.881774
 H         0.346958         1.977842         0.563115
 H         1.053447        -0.603964         1.136738
