19
Iteration:  3407charge 0 multiplicity 1
 C        -1.768182        -1.889829        -0.877032
 C        -1.386307        -0.457546        -0.991288
 C        -1.969735         0.617552        -1.990347
 C        -0.546035         0.138606        -2.089877
 C         0.497069         0.976837        -1.513504
 C         0.269322         0.969985         0.053647
 O        -0.874868         0.157445         0.215033
 C         1.583598         0.267072         0.629196
 O         2.637736         0.669531         0.223566
 H        -2.808678        -1.998566        -0.873722
 H        -1.412555        -2.383400        -1.722042
 H        -1.434260        -2.329746         0.108763
 H        -2.643822         0.274976        -2.807790
 H        -2.327224         1.493843        -1.431204
 H        -0.267138        -0.208681        -3.129149
 H         1.567385         0.644841        -1.731901
 H         0.395855         2.077062        -1.905111
 H         0.116485         1.821959         0.677114
 H         1.455707        -0.602807         1.340723
