19
Iteration:  3508charge 0 multiplicity 1
 C        -1.738753        -1.942845        -0.885479
 C        -1.341049        -0.462423        -1.073593
 C        -2.085719         0.637174        -1.842722
 C        -0.655285         0.201514        -2.267832
 C         0.557803         0.994249        -1.675429
 C         0.360528         0.979962        -0.112977
 O        -0.732535         0.065678         0.167692
 C         1.477678         0.422662         0.774870
 O         2.597660         0.574517         0.465545
 H        -1.326934        -2.385074        -0.061142
 H        -2.838426        -2.137467        -0.745342
 H        -1.485759        -2.563306        -1.664971
 H        -3.091273         0.373331        -2.198191
 H        -2.010297         1.617180        -1.283874
 H        -0.677835        -0.445339        -3.127375
 H         1.586823         0.582131        -2.036648
 H         0.659894         2.111954        -1.873763
 H         0.208100         2.082186         0.261172
 H         1.239873         0.044754         1.788245
