19
Iteration:  4516charge 0 multiplicity 1
 C        -2.247613        -1.695210        -1.078405
 C        -1.454299        -0.447703        -1.053374
 C        -1.947782         0.718057        -1.791230
 C        -0.647835        -0.004936        -2.191727
 C         0.628266         0.614201        -1.711462
 C         0.462480         0.658958        -0.201582
 O        -0.673500        -0.239392         0.108858
 C         1.831748         0.438584         0.612807
 O         2.550343         1.361094         0.930468
 H        -3.411603        -1.562732        -1.108781
 H        -2.036167        -2.361538        -1.902871
 H        -2.106061        -2.052442        -0.081028
 H        -2.929100         0.571141        -2.236121
 H        -1.870698         1.774971        -1.549279
 H        -0.449079        -0.587670        -3.149780
 H         1.425365        -0.127407        -2.109082
 H         0.830868         1.578161        -2.128586
 H         0.030594         1.693956         0.215087
 H         2.001057        -0.755117         0.616442
