19
Iteration:  2395charge 0 multiplicity 1
 C        -1.650288        -1.900929        -0.760755
 C        -1.284045        -0.443511        -0.969611
 C        -2.085031         0.559389        -1.842454
 C        -0.600206         0.226086        -2.145389
 C         0.390779         1.220676        -1.539438
 C         0.295695         1.050579        -0.023507
 O        -0.804574         0.130105         0.203746
 C         1.500421         0.303704         0.564418
 O         2.703807         0.342235         0.154027
 H        -2.046200        -2.003419         0.242502
 H        -2.412962        -1.954771        -1.546640
 H        -0.838886        -2.546049        -0.946776
 H        -2.827741         0.061787        -2.525962
 H        -2.431137         1.530254        -1.390840
 H        -0.289570        -0.321323        -3.051846
 H         1.480506         1.117802        -1.826444
 H         0.048102         2.268859        -1.862501
 H        -0.113585         1.978902         0.572848
 H         1.248074        -0.400101         1.399930
