19
Iteration:  1323
 C        -1.572362        -1.899000        -0.828042
 C        -1.380237        -0.380804        -0.987654
 C        -2.119051         0.600372        -1.869362
 C        -0.581553         0.179203        -2.085204
 C         0.442078         1.103129        -1.527165
 C         0.280657         0.958239         0.131596
 O        -0.932004         0.256682         0.236785
 C         1.584667         0.183350         0.529496
 O         2.675089         0.480205         0.065373
 H        -2.034801        -2.278467         0.132980
 H        -2.200180        -2.155593        -1.620145
 H        -0.611869        -2.302439        -0.928267
 H        -2.835546         0.149748        -2.583046
 H        -2.469224         1.588866        -1.433003
 H        -0.344081        -0.530265        -2.916586
 H         1.548800         0.756832        -1.735315
 H         0.499012         2.170194        -1.956351
 H         0.281051         1.851149         0.632626
 H         1.426845        -0.482054         1.396102
