19
Iteration:    72
 C        -1.850280        -1.846686        -0.933916
 C        -1.466313        -0.436835        -0.970143
 C        -2.224439         0.673805        -1.856452
 C        -0.782124         0.234534        -2.103311
 C         0.429403         1.016511        -1.595836
 C         0.436526         0.857990        -0.039130
 O        -0.601666        -0.036024         0.196995
 C         1.674444         0.526070         0.784135
 O         2.784762         0.451300         0.211674
 H        -2.585961        -2.025879        -0.075946
 H        -2.350115        -2.036074        -1.946456
 H        -0.866332        -2.389818        -0.787369
 H        -2.782284         0.337213        -2.802077
 H        -2.452068         1.623756        -1.337217
 H        -0.669591        -0.342371        -3.029564
 H         1.448010         0.742911        -2.092404
 H         0.123054         2.243761        -1.846789
 H         0.049784         1.926876         0.284318
 H         1.568175         0.445426         1.865084
