19
Iteration:  1157
 C        -1.659912        -1.870994        -0.764997
 C        -1.280529        -0.395168        -0.903081
 C        -1.994043         0.481017        -1.812744
 C        -0.584967         0.212274        -2.088869
 C         0.307931         1.288345        -1.584254
 C         0.348296         0.915993        -0.034844
 O        -0.851306         0.271546         0.205279
 C         1.486446         0.060735         0.340095
 O         2.681780         0.482202         0.279672
 H        -2.163028        -2.008258         0.144663
 H        -2.384455        -2.219060        -1.505262
 H        -0.807103        -2.469904        -0.808000
 H        -2.803958         0.149513        -2.395709
 H        -2.088964         1.462830        -1.384685
 H        -0.345157        -0.350589        -2.975388
 H         1.407006         1.273357        -1.975267
 H        -0.138554         2.290490        -1.830440
 H         0.324040         1.885435         0.603981
 H         1.242145        -0.890416         0.744072
