19
Iteration:  4738
 C        -1.929180        -1.858276        -0.986996
 C        -1.315065        -0.501038        -1.006352
 C        -1.973959         0.536258        -1.998467
 C        -0.507506         0.027067        -2.203313
 C         0.673113         0.811348        -1.707189
 C         0.255980         1.062426        -0.112544
 O        -0.824760         0.132824         0.187088
 C         1.444711         0.522948         0.752862
 O         2.666345         0.764676         0.705976
 H        -1.683382        -2.724914        -1.703558
 H        -1.635805        -2.374645        -0.062660
 H        -3.085942        -1.715466        -0.895903
 H        -2.679197         0.098582        -2.719326
 H        -2.272047         1.613244        -1.796349
 H        -0.314225        -0.596659        -3.180132
 H         1.477724         0.110358        -1.794148
 H         0.938304         1.699374        -2.434157
 H         0.071225         2.043381         0.202555
 H         0.952591        -0.221751         1.448466
