19
Iteration:   910
 C        -1.478109        -1.916547        -0.835426
 C        -1.343647        -0.357116        -0.892792
 C        -2.055620         0.602870        -1.855544
 C        -0.595765         0.208043        -2.070316
 C         0.439222         1.170761        -1.538414
 C         0.302421         1.018668        -0.035849
 O        -0.842045         0.232670         0.262825
 C         1.449366         0.296511         0.627854
 O         2.554172         0.251584         0.005218
 H        -2.344803        -2.306813        -0.285225
 H        -1.482174        -2.276906        -1.826166
 H        -0.676382        -2.416621        -0.365628
 H        -2.824500         0.284781        -2.526315
 H        -2.226390         1.509070        -1.336063
 H        -0.301602        -0.399878        -2.937768
 H         1.466839         1.075846        -1.852789
 H        -0.111813         2.166320        -1.804108
 H         0.167957         2.075328         0.486169
 H         1.325601        -0.254030         1.551261
