19
Iteration:  3582charge 0 multiplicity 1
 C        -1.936143        -1.866581        -1.011079
 C        -1.328547        -0.457955        -0.999382
 C        -1.881148         0.699931        -1.782167
 C        -0.531823         0.113664        -2.213370
 C         0.621979         0.862851        -1.560428
 C         0.274697         0.923715        -0.145777
 O        -0.712337        -0.115120         0.216612
 C         1.430290         0.636202         0.727780
 O         2.567882         0.696573         0.398412
 H        -1.432621        -2.557846        -1.742155
 H        -1.850027        -2.526148        -0.128421
 H        -3.062059        -1.856735        -1.271910
 H        -2.801225         0.562756        -2.384765
 H        -1.930057         1.750135        -1.333008
 H        -0.562826        -0.550424        -3.084471
 H         1.624923         0.423843        -1.696676
 H         0.564662         1.828280        -2.081531
 H        -0.164764         1.801455         0.156300
 H         1.147216         0.365907         1.737251
