19
Iteration:  4518charge 0 multiplicity 1
 C        -2.255400        -1.717501        -1.087211
 C        -1.454275        -0.444301        -1.052078
 C        -1.941263         0.742681        -1.785290
 C        -0.652059        -0.024662        -2.201778
 C         0.628222         0.611525        -1.713044
 C         0.461127         0.666591        -0.205465
 O        -0.676823        -0.240802         0.116443
 C         1.843545         0.437421         0.626879
 O         2.543749         1.359259         0.921056
 H        -3.350550        -1.529620        -1.136576
 H        -2.054462        -2.344499        -1.902369
 H        -2.041419        -2.062022        -0.032203
 H        -2.899287         0.605681        -2.258238
 H        -1.866605         1.794208        -1.530229
 H        -0.475094        -0.569232        -3.153188
 H         1.407646        -0.103217        -2.054124
 H         0.812050         1.612621        -2.139855
 H         0.015056         1.663923         0.186163
 H         2.036465        -0.723526         0.651517
