19
Iteration:   866charge 0 multiplicity 1
 C        -1.585425        -1.885976        -0.749159
 C        -1.295783        -0.462288        -1.041783
 C        -2.159595         0.338039        -1.889180
 C        -0.683120         0.380506        -2.106722
 C         0.359669         1.409475        -1.512171
 C         0.373319         1.048507        -0.013554
 O        -0.893086         0.282032         0.158264
 C         1.615538         0.308816         0.608009
 O         2.720841         0.085060         0.164992
 H        -2.212639        -1.902677         0.147592
 H        -1.993766        -2.423562        -1.543346
 H        -0.665390        -2.289969        -0.480558
 H        -2.620314        -0.124602        -2.726481
 H        -2.659248         1.177518        -1.516740
 H        -0.344360        -0.058102        -3.086315
 H         1.222965         1.213967        -2.094517
 H        -0.112237         2.491119        -1.531002
 H         0.276629         2.014043         0.640529
 H         1.377053        -0.138002         1.657958
