19
Iteration:   240charge 0 multiplicity 1
 C        -1.601987        -1.855118        -0.678769
 C        -1.298170        -0.436325        -1.005723
 C        -2.103047         0.563051        -1.820814
 C        -0.535302         0.273888        -2.090919
 C         0.372884         1.392050        -1.581273
 C         0.289826         0.970173        -0.036629
 O        -0.797278         0.084313         0.260325
 C         1.470165         0.231722         0.525098
 O         2.594666         0.261257         0.073291
 H        -2.340003        -1.883503         0.094479
 H        -1.758478        -2.377045        -1.581735
 H        -0.684325        -2.211711        -0.243642
 H        -2.441189         0.364599        -2.792369
 H        -2.198821         1.547567        -1.551122
 H        -0.337771        -0.237200        -3.060137
 H         1.445299         1.196951        -2.058020
 H        -0.055099         2.472688        -1.777107
 H         0.318963         1.841807         0.690238
 H         1.162411        -0.440953         1.397004
