19
Iteration:   802
 C        -1.404492        -1.883121        -0.775275
 C        -1.293998        -0.403975        -0.868635
 C        -2.086468         0.426842        -1.905731
 C        -0.647340         0.353298        -2.086627
 C         0.500676         1.234479        -1.457189
 C         0.314726         1.005457         0.041644
 O        -0.987289         0.415308         0.292139
 C         1.462318         0.140966         0.475153
 O         2.560185         0.233755        -0.023326
 H        -2.123465        -2.283643        -0.009436
 H        -1.737394        -2.247028        -1.725426
 H        -0.315766        -2.317602        -0.598122
 H        -2.630679        -0.095396        -2.648456
 H        -2.432661         1.385648        -1.644996
 H        -0.302803        -0.373706        -2.874883
 H         1.528495         0.901257        -1.802838
 H         0.306550         2.349052        -1.771832
 H         0.265299         1.859888         0.665526
 H         1.125274        -0.559035         1.217688
