19
Iteration:   715
 C        -1.596878        -1.841626        -0.821272
 C        -1.178048        -0.442936        -0.910239
 C        -2.029534         0.340151        -1.841234
 C        -0.467483         0.255132        -2.002040
 C         0.288087         1.346096        -1.437340
 C         0.316655         1.152612        -0.003885
 O        -0.917833         0.407472         0.267162
 C         1.472970         0.127965         0.406797
 O         2.597022         0.169976         0.003166
 H        -2.511652        -2.015290        -0.192172
 H        -1.819359        -2.232822        -1.812759
 H        -0.670009        -2.510599        -0.473463
 H        -2.741932        -0.285221        -2.292839
 H        -2.413717         1.250565        -1.421884
 H        -0.022615        -0.203941        -2.906051
 H         1.287246         1.527417        -1.845926
 H        -0.110611         2.229021        -1.588754
 H         0.401215         2.001855         0.636407
 H         1.069579        -0.760857         1.068526
