19
Iteration:   335
 C        -1.511293        -1.923704        -0.618988
 C        -1.226763        -0.423327        -0.955934
 C        -2.081117         0.522771        -1.857400
 C        -0.539427         0.321124        -2.111645
 C         0.345072         1.376618        -1.497245
 C         0.278212         0.981692        -0.030072
 O        -0.945002         0.275986         0.207325
 C         1.464083         0.152098         0.386299
 O         2.658833         0.211949         0.096294
 H        -2.272446        -1.771032         0.254911
 H        -1.928747        -2.494540        -1.448811
 H        -0.484608        -2.408401        -0.361234
 H        -2.702042         0.103982        -2.632775
 H        -2.194490         1.508752        -1.439809
 H        -0.084814        -0.278319        -2.934745
 H         1.293342         1.357684        -1.879102
 H        -0.083125         2.357819        -1.665187
 H         0.272022         1.885206         0.585763
 H         1.020719        -0.672814         1.066532
