19
Iteration:  3175
 C        -1.540407        -1.898570        -0.843407
 C        -1.342262        -0.373086        -0.866756
 C        -1.949139         0.406127        -1.925892
 C        -0.485018         0.191462        -2.083988
 C         0.349835         1.382758        -1.469790
 C         0.275038         1.061140        -0.000679
 O        -0.911092         0.325034         0.358143
 C         1.421002         0.157403         0.459937
 O         2.609819         0.236132         0.028329
 H        -1.460168        -2.186107         0.219504
 H        -2.397638        -2.271045        -1.155028
 H        -0.633113        -2.277443        -1.232102
 H        -2.677938        -0.133813        -2.543969
 H        -2.312686         1.437089        -1.698823
 H        -0.034309        -0.370896        -2.964324
 H         1.397996         1.415831        -1.837187
 H        -0.053183         2.373491        -1.843120
 H         0.182875         2.026058         0.670116
 H         1.060364        -0.633501         1.158577
