19
Iteration:   530
 C        -1.597130        -1.922097        -0.800354
 C        -1.244805        -0.383626        -0.967353
 C        -2.109509         0.445917        -1.800230
 C        -0.503077         0.270483        -2.015567
 C         0.476371         1.273678        -1.550946
 C         0.312768         1.073619         0.039128
 O        -0.869506         0.268568         0.283052
 C         1.444013         0.233867         0.562133
 O         2.529413         0.249145        -0.063782
 H        -2.242304        -2.015998         0.008495
 H        -2.066827        -2.230295        -1.666359
 H        -0.699627        -2.539062        -0.771652
 H        -2.714504        -0.082420        -2.620264
 H        -2.553615         1.384529        -1.380020
 H        -0.206746        -0.306301        -2.889209
 H         1.594849         1.060543        -1.947431
 H         0.403889         2.346368        -1.896559
 H         0.289356         1.963636         0.729413
 H         1.293105        -0.281464         1.509215
