19
Iteration:   824charge 0 multiplicity 1
 C        -1.391669        -1.821721        -0.808938
 C        -1.325456        -0.342102        -0.908072
 C        -2.089806         0.504981        -1.835224
 C        -0.495104         0.178294        -2.057990
 C         0.290125         1.304592        -1.587708
 C         0.334876         1.126092        -0.021796
 O        -0.874370         0.249397         0.293922
 C         1.454231         0.181533         0.469697
 O         2.544234         0.158928         0.108094
 H        -1.952836        -2.020897         0.130392
 H        -1.893580        -2.268810        -1.629287
 H        -0.285830        -2.178900        -0.708601
 H        -2.746707         0.028876        -2.522429
 H        -2.344135         1.464766        -1.490946
 H        -0.263366        -0.497917        -2.918745
 H         1.408794         1.099157        -1.774575
 H        -0.052614         2.376895        -1.932905
 H         0.229427         1.962475         0.613824
 H         0.857460        -0.595958         0.992018
