19
Iteration:  3267charge 0 multiplicity 1
 C        -1.490461        -1.850439        -0.867448
 C        -1.264739        -0.423011        -0.963591
 C        -2.023964         0.540256        -1.904613
 C        -0.604892         0.189581        -2.111690
 C         0.445646         1.164980        -1.550663
 C         0.244747         1.036708        -0.028306
 O        -0.923257         0.280938         0.292343
 C         1.429012         0.196451         0.567403
 O         2.593093         0.402036         0.169911
 H        -0.808270        -2.538774        -1.340590
 H        -1.356328        -2.240281         0.181058
 H        -2.410192        -2.265341        -1.406197
 H        -2.892321         0.084913        -2.355327
 H        -2.118772         1.607136        -1.611635
 H        -0.326146        -0.624138        -2.761628
 H         1.438927         0.757536        -1.760239
 H         0.487256         2.155834        -1.934157
 H         0.229360         1.964739         0.736738
 H         1.212213        -0.589089         1.351937
