19
Iteration:  2181
 C        -1.521137        -1.894753        -0.722114
 C        -1.228269        -0.419864        -0.959471
 C        -2.062148         0.453245        -1.861213
 C        -0.542795         0.257009        -2.094130
 C         0.290074         1.396166        -1.590537
 C         0.311647         0.978252        -0.018339
 O        -0.874476         0.256238         0.275978
 C         1.437045         0.093245         0.366062
 O         2.657551         0.303990         0.211563
 H        -1.987443        -1.875855         0.264403
 H        -2.327488        -2.145142        -1.405349
 H        -0.764010        -2.730051        -0.773472
 H        -2.844782         0.093917        -2.558975
 H        -2.243322         1.431728        -1.426787
 H        -0.235156        -0.024411        -3.080269
 H         1.379034         1.564130        -1.814720
 H        -0.030042         2.520130        -1.801819
 H         0.367354         1.996307         0.536684
 H         0.951020        -0.674374         1.007129
