19
Iteration:  4215
 C        -1.901437        -1.795414        -0.817364
 C        -1.470080        -0.408682        -1.075229
 C        -2.115610         0.610040        -1.999196
 C        -0.657003         0.070086        -2.290341
 C         0.641920         0.789057        -1.743611
 C         0.444522         0.820020        -0.304759
 O        -0.741569         0.059969         0.136012
 C         1.560500         0.444070         0.741363
 O         2.679366         0.858911         0.883866
 H        -2.754540        -2.093903        -1.295211
 H        -1.221131        -2.586265        -1.200744
 H        -1.994024        -1.963942         0.336790
 H        -2.948818         0.353696        -2.645016
 H        -2.287582         1.604501        -1.567494
 H        -0.436658        -0.533390        -3.220764
 H         1.444272         0.068467        -1.988917
 H         0.827831         1.869960        -2.061398
 H         0.328229         1.982613         0.018808
 H         1.015637        -0.256938         1.382382
