19
Iteration:  4807charge 0 multiplicity 1
 C        -1.862176        -1.860053        -0.876259
 C        -1.330767        -0.422321        -1.087491
 C        -1.940612         0.474131        -2.138893
 C        -0.449858        -0.029031        -2.142234
 C         0.597896         0.905586        -1.594014
 C         0.266229         1.044694        -0.092440
 O        -0.859967         0.225268         0.144216
 C         1.429510         0.487689         0.736741
 O         2.600745         0.671189         0.660133
 H        -2.790712        -2.184273        -1.201740
 H        -1.172072        -2.608717        -1.498934
 H        -1.857912        -2.060634         0.176045
 H        -2.539796        -0.062818        -2.903570
 H        -2.117577         1.544071        -1.978057
 H        -0.193411        -0.703465        -2.933484
 H         1.580006         0.368250        -1.600023
 H         0.734782         1.884075        -2.090624
 H         0.026657         2.005361         0.235720
 H         0.959079        -0.233324         1.464440
