19
Iteration:   522
 C        -1.627049        -1.925815        -0.830105
 C        -1.278463        -0.454643        -0.869652
 C        -2.118532         0.473942        -1.840624
 C        -0.530936         0.205345        -2.047468
 C         0.516205         1.342576        -1.521369
 C         0.370882         1.160770         0.045244
 O        -0.839828         0.260914         0.282319
 C         1.466210         0.217239         0.535061
 O         2.510429         0.243129        -0.030223
 H        -2.324901        -2.234091        -0.025568
 H        -2.126192        -2.175252        -1.738193
 H        -0.663866        -2.459629        -0.870152
 H        -2.602447        -0.164530        -2.499951
 H        -2.529560         1.368042        -1.547153
 H        -0.229131        -0.296779        -2.967742
 H         1.478544         1.100834        -1.947290
 H         0.114564         2.314889        -1.958312
 H         0.327707         2.095259         0.625025
 H         1.248536        -0.360773         1.432941
