19
Iteration:  2353
 C        -1.613655        -1.878466        -0.879633
 C        -1.325914        -0.403582        -0.902360
 C        -2.030534         0.567941        -1.923846
 C        -0.579228         0.186481        -2.034191
 C         0.444864         1.134925        -1.424082
 C         0.281524         0.962767         0.043828
 O        -0.968752         0.225622         0.255582
 C         1.565720         0.305860         0.597866
 O         2.669138         0.424422        -0.028950
 H        -2.036943        -2.451812         0.114140
 H        -2.378693        -2.129455        -1.622700
 H        -0.740704        -2.469053        -1.026813
 H        -2.747660         0.073428        -2.597991
 H        -2.121164         1.546619        -1.448508
 H        -0.398098        -0.456037        -2.906960
 H         1.417475         0.822410        -1.734174
 H         0.182628         2.177374        -1.742912
 H         0.283051         1.973305         0.439846
 H         1.422395        -0.506543         1.356516
