19
Iteration:  2343charge 0 multiplicity 1
 C        -1.617699        -1.912434        -0.897539
 C        -1.404764        -0.412658        -0.971380
 C        -2.045145         0.523520        -1.914831
 C        -0.577861         0.170738        -2.039100
 C         0.385966         1.162302        -1.472467
 C         0.322547         0.950158         0.094826
 O        -0.958594         0.250418         0.301175
 C         1.616515         0.302788         0.526860
 O         2.691567         0.402192         0.025910
 H        -2.097555        -1.890869         0.230875
 H        -2.224506        -2.310003        -1.708870
 H        -0.628837        -2.342104        -0.953569
 H        -2.818367         0.428222        -2.660535
 H        -2.210564         1.531539        -1.528973
 H        -0.132004        -0.503608        -2.799916
 H         1.351954         0.964719        -1.850259
 H         0.318614         2.230212        -1.681766
 H         0.066402         1.861578         0.531680
 H         1.493196        -0.339705         1.459089
