19
Iteration:   379
 C        -1.431148        -1.783847        -0.755451
 C        -1.321102        -0.367107        -0.946749
 C        -2.149228         0.383687        -1.932873
 C        -0.624716         0.275098        -2.117064
 C         0.317303         1.348304        -1.470147
 C         0.321031         0.990658         0.028477
 O        -0.941626         0.369928         0.256196
 C         1.533586         0.107859         0.445386
 O         2.734336         0.179413         0.108961
 H        -2.128393        -1.698640         0.182519
 H        -2.003991        -2.260579        -1.545087
 H        -0.445364        -2.357032        -0.482155
 H        -2.688391        -0.351881        -2.503057
 H        -2.464927         1.387943        -1.745776
 H        -0.358750        -0.249488        -3.060770
 H         1.252527         1.171969        -1.780416
 H         0.025141         2.382745        -1.578240
 H         0.246034         1.841845         0.712754
 H         1.139375        -0.626257         1.124889
