19
Iteration:  1353charge 0 multiplicity 1
 C        -1.655769        -1.865292        -0.799157
 C        -1.302085        -0.394820        -0.892583
 C        -2.004248         0.572177        -1.835204
 C        -0.552704         0.175822        -2.108695
 C         0.388217         1.233910        -1.649617
 C         0.248179         1.000398         0.005839
 O        -0.800022         0.145190         0.303307
 C         1.478567         0.225031         0.488176
 O         2.643583         0.407616         0.139475
 H        -2.383791        -2.237331        -0.005920
 H        -2.167267        -1.931334        -1.866226
 H        -0.705376        -2.507446        -0.796414
 H        -2.661150         0.035567        -2.462286
 H        -2.320529         1.451659        -1.343847
 H        -0.271477        -0.444576        -2.981334
 H         1.508916         1.093579        -1.843165
 H         0.043022         2.288578        -1.879325
 H         0.183297         2.004671         0.469235
 H         1.083437        -0.479248         1.312005
