19
Iteration:   310charge 0 multiplicity 1
 C        -1.485836        -1.842626        -0.827543
 C        -1.380108        -0.312008        -0.829231
 C        -2.053576         0.468213        -1.917853
 C        -0.551309         0.157663        -2.075082
 C         0.319760         1.277284        -1.525599
 C         0.285734         1.037256         0.041549
 O        -0.879244         0.320028         0.352870
 C         1.518447         0.132573         0.451317
 O         2.628543         0.255165         0.043437
 H        -2.301698        -2.081688        -0.213803
 H        -1.617583        -2.211690        -1.845591
 H        -0.548327        -2.200034        -0.482860
 H        -2.703383        -0.149054        -2.641083
 H        -2.141744         1.660993        -1.777202
 H        -0.251976        -0.372715        -2.966473
 H         1.353150         1.185749        -1.880866
 H        -0.114727         2.213484        -1.817818
 H         0.369588         1.965761         0.637683
 H         1.131001        -0.748013         1.031983
