19
Iteration:  2628charge 0 multiplicity 1
 C        -1.498495        -1.859485        -0.848795
 C        -1.403605        -0.361492        -0.966430
 C        -2.199977         0.552697        -1.769489
 C        -0.622442         0.288515        -2.087757
 C         0.482891         1.093629        -1.604032
 C         0.382785         0.883261        -0.003224
 O        -0.955662         0.306926         0.189183
 C         1.609364         0.053099         0.491928
 O         2.653183         0.530147         0.200834
 H        -2.407537        -2.068809        -0.217233
 H        -1.536699        -2.425367        -1.674289
 H        -0.755417        -2.239916        -0.251643
 H        -2.998917         0.053198        -2.332622
 H        -2.457609         1.479046        -1.230369
 H        -0.581997        -0.232572        -3.048701
 H         1.366754         0.493337        -1.904232
 H         0.506199         2.256694        -1.746705
 H         0.291293         1.737733         0.580163
 H         1.409415        -0.752384         1.224879
