19
Iteration:   794charge 0 multiplicity 1
 C        -1.406859        -1.885580        -0.760156
 C        -1.321414        -0.374534        -0.883108
 C        -2.058817         0.405917        -1.872339
 C        -0.582573         0.364906        -2.093823
 C         0.411578         1.240206        -1.472231
 C         0.359087         0.947547         0.046003
 O        -1.045641         0.440174         0.238427
 C         1.468442         0.137086         0.544386
 O         2.594688         0.247431        -0.063514
 H        -2.155988        -2.148576         0.003614
 H        -1.670380        -2.240236        -1.773938
 H        -0.376049        -2.377159        -0.435444
 H        -2.542372        -0.101020        -2.743161
 H        -2.617741         1.285702        -1.533633
 H        -0.339059        -0.184205        -3.006858
 H         1.432987         0.821681        -1.748769
 H         0.361177         2.229949        -1.589840
 H         0.411018         1.797285         0.730316
 H         1.271578        -0.618234         1.377891
