19
Iteration:  2636
 C        -1.543599        -1.877129        -0.844609
 C        -1.384942        -0.423414        -0.934437
 C        -2.160724         0.544999        -1.771182
 C        -0.746067         0.317051        -2.105557
 C         0.473501         1.110195        -1.571163
 C         0.402155         0.863749        -0.036916
 O        -0.924622         0.361207         0.172302
 C         1.569169         0.093587         0.525590
 O         2.696563         0.501861         0.215762
 H        -2.445004        -2.342942        -0.393563
 H        -1.393099        -2.250279        -1.908443
 H        -0.603853        -2.174945        -0.149950
 H        -2.836508         0.093943        -2.452416
 H        -2.442333         1.395513        -1.183033
 H        -0.507543        -0.363689        -2.909740
 H         1.371650         0.640068        -1.968147
 H         0.509832         2.175667        -1.887193
 H         0.289127         1.792627         0.543270
 H         1.392440        -0.825181         1.149324
