19
Iteration:  1381charge 0 multiplicity 1
 C        -1.733111        -1.885014        -0.744341
 C        -1.290441        -0.462674        -1.020584
 C        -2.127105         0.480972        -1.893925
 C        -0.618532         0.284562        -2.167727
 C         0.326570         1.284154        -1.541614
 C         0.348092         0.978920        -0.027629
 O        -0.775541         0.151829         0.212591
 C         1.579871         0.347532         0.589581
 O         2.753662         0.318934         0.197109
 H        -2.657307        -1.816915        -0.259486
 H        -1.920912        -2.345693        -1.706996
 H        -1.068546        -2.602425        -0.322008
 H        -2.894611        -0.049433        -2.526912
 H        -2.468126         1.325929        -1.236828
 H        -0.203064        -0.199991        -3.030941
 H         1.286902         1.245988        -1.982872
 H        -0.071204         2.270600        -1.544454
 H         0.271051         1.982333         0.438704
 H         1.267100        -0.201850         1.478312
