19
Iteration:  1350
 C        -1.642573        -1.879239        -0.801482
 C        -1.327528        -0.398206        -0.895702
 C        -1.986192         0.577386        -1.849268
 C        -0.545594         0.189021        -2.096763
 C         0.404892         1.218979        -1.630251
 C         0.254426         0.986828        -0.002705
 O        -0.808345         0.149259         0.322888
 C         1.435480         0.226848         0.488209
 O         2.662772         0.416768         0.123562
 H        -2.295129        -2.246699        -0.065448
 H        -2.187551        -1.849501        -1.792476
 H        -0.699472        -2.502199        -0.784766
 H        -2.718588         0.068790        -2.480733
 H        -2.350058         1.458932        -1.360529
 H        -0.321354        -0.445711        -2.941777
 H         1.395291         1.094697        -1.899119
 H         0.141430         2.205876        -1.862234
 H         0.145280         2.098753         0.433431
 H         1.113090        -0.513517         1.259058
