19
Iteration:   459charge 0 multiplicity 1
 C        -1.572725        -1.942483        -0.628972
 C        -1.276861        -0.437476        -1.022833
 C        -2.145775         0.483239        -1.984889
 C        -0.644238         0.384077        -2.091644
 C         0.343540         1.294199        -1.464394
 C         0.389334         1.017453         0.032644
 O        -0.859369         0.306005         0.239917
 C         1.556965         0.168512         0.551889
 O         2.645100         0.211599         0.015389
 H        -2.582493        -1.923558        -0.025594
 H        -1.632947        -2.607901        -1.618826
 H        -0.612316        -2.354549        -0.199236
 H        -2.665892        -0.010762        -2.776971
 H        -2.761603         1.281991        -1.619118
 H        -0.273099        -0.009783        -3.040165
 H         1.344680         1.196394        -1.826024
 H         0.221907         2.317126        -1.778765
 H         0.297213         1.887755         0.708911
 H         1.294786        -0.185650         1.573230
