19
Iteration:   870charge 0 multiplicity 1
 C        -1.584767        -1.861162        -0.739538
 C        -1.293901        -0.463832        -1.016734
 C        -2.183143         0.330215        -1.909548
 C        -0.663188         0.410333        -2.102081
 C         0.368198         1.378247        -1.510457
 C         0.329163         1.069502        -0.002818
 O        -0.886406         0.269955         0.146954
 C         1.583035         0.307329         0.619991
 O         2.768724         0.082095         0.144959
 H        -2.309719        -1.881755         0.082188
 H        -2.026214        -2.372721        -1.643622
 H        -0.518267        -2.311696        -0.443637
 H        -2.693571        -0.229496        -2.734043
 H        -2.760123         1.195880        -1.498495
 H        -0.443597        -0.055737        -3.028418
 H         1.387945         1.238653        -2.086368
 H         0.031759         2.383804        -1.452876
 H         0.155693         1.913666         0.564588
 H         1.403352        -0.081913         1.688475
