19
Iteration:  1733
 C        -1.357914        -1.894562        -0.803733
 C        -1.298027        -0.361977        -0.943913
 C        -2.131464         0.448337        -1.859134
 C        -0.632551         0.294239        -2.063464
 C         0.393153         1.300563        -1.478302
 C         0.331678         1.045462         0.015716
 O        -0.946970         0.319019         0.256890
 C         1.495724         0.268471         0.582863
 O         2.538069         0.114647        -0.050478
 H        -2.205559        -2.225023        -0.381040
 H        -1.107823        -2.390932        -1.751240
 H        -0.537913        -2.393533        -0.212627
 H        -2.783544         0.005471        -2.599431
 H        -2.374552         1.439822        -1.498090
 H        -0.216455        -0.429328        -2.726954
 H         1.447735         1.214235        -1.846232
 H         0.146211         2.344876        -1.756052
 H         0.310506         1.959431         0.589560
 H         1.249431        -0.186547         1.661751
