19
Iteration:   434charge 0 multiplicity 1
 C        -1.495966        -1.830546        -0.717881
 C        -1.278895        -0.373779        -0.948304
 C        -2.102665         0.401247        -1.784788
 C        -0.558821         0.351101        -2.121260
 C         0.467983         1.259856        -1.537608
 C         0.267686         1.008543         0.013846
 O        -0.941240         0.313953         0.264339
 C         1.449700         0.171083         0.467102
 O         2.630256         0.222950         0.013226
 H        -2.517383        -1.961831        -0.265600
 H        -1.445145        -2.304533        -1.674392
 H        -0.573967        -2.255054        -0.234769
 H        -2.791620        -0.077260        -2.449726
 H        -2.419962         1.316086        -1.351131
 H        -0.156668        -0.382698        -2.849322
 H         1.424419         1.103256        -1.799348
 H         0.367112         2.320969        -1.759106
 H         0.080839         1.938681         0.547319
 H         1.020727        -0.651031         1.126780
