19
Iteration:  3861
 C        -2.152355        -1.823819        -1.044450
 C        -1.444494        -0.375375        -0.966878
 C        -1.819583         0.822812        -1.776867
 C        -0.716365        -0.019293        -2.196111
 C         0.678246         0.384534        -1.865095
 C         0.487968         0.744390        -0.447040
 O        -0.595498        -0.111616         0.237863
 C         1.669174         0.506752         0.475688
 O         2.341310         1.274513         1.164106
 H        -2.182589        -2.248355         0.001297
 H        -3.181259        -1.752179        -1.388571
 H        -1.518039        -2.352234        -1.603008
 H        -2.750255         0.883670        -2.409606
 H        -1.594095         1.866464        -1.510151
 H        -0.841019        -0.453708        -3.145677
 H         1.302944        -0.392987        -1.975081
 H         1.270328         1.167372        -2.240062
 H         0.171235         1.862664        -0.539758
 H         1.962833        -0.563418         0.455549
