19
Iteration:  2409charge 0 multiplicity 1
 C        -1.678034        -1.907496        -0.790801
 C        -1.334705        -0.416987        -1.031707
 C        -2.083845         0.525637        -1.838814
 C        -0.630562         0.230889        -2.158560
 C         0.298026         1.301224        -1.614892
 C         0.290805         1.021194        -0.034023
 O        -0.754160         0.113747         0.228348
 C         1.550475         0.327799         0.594913
 O         2.755935         0.298568         0.237819
 H        -2.317369        -2.009938         0.290905
 H        -2.228184        -2.597000        -1.381852
 H        -0.757944        -2.470994        -0.672213
 H        -2.826648         0.253313        -2.577640
 H        -2.298619         1.550539        -1.529511
 H        -0.538583        -0.189794        -3.187743
 H         1.292533         1.183415        -2.016787
 H         0.053500         2.355746        -1.869519
 H         0.364905         1.967659         0.599324
 H         1.294307        -0.147857         1.561339
