19
Iteration:   872charge 0 multiplicity 1
 C        -1.571485        -1.853768        -0.732923
 C        -1.290239        -0.453396        -1.002836
 C        -2.198727         0.333409        -1.921934
 C        -0.650985         0.422381        -2.103095
 C         0.373684         1.356889        -1.511840
 C         0.307898         1.066242        -0.003774
 O        -0.882525         0.263014         0.146996
 C         1.578901         0.300550         0.626725
 O         2.779771         0.084804         0.136869
 H        -2.364683        -1.887275         0.056396
 H        -2.035864        -2.350155        -1.692187
 H        -0.543756        -2.331828        -0.434936
 H        -2.729482        -0.276253        -2.713189
 H        -2.814341         1.203416        -1.485902
 H        -0.463898        -0.069077        -3.029153
 H         1.404753         1.285152        -2.008984
 H         0.123510         2.360420        -1.476104
 H         0.080255         1.934539         0.582159
 H         1.409463        -0.023033         1.640256
