19
Iteration:   457charge 0 multiplicity 1
 C        -1.568160        -1.946494        -0.637743
 C        -1.262190        -0.436687        -1.017494
 C        -2.162441         0.485677        -1.988764
 C        -0.648334         0.376156        -2.077858
 C         0.369743         1.306234        -1.469052
 C         0.387581         1.039255         0.024621
 O        -0.874118         0.300271         0.241885
 C         1.541736         0.154599         0.551033
 O         2.652252         0.216590         0.009023
 H        -2.553454        -1.902073        -0.070445
 H        -1.644508        -2.577333        -1.555127
 H        -0.629821        -2.353154        -0.158367
 H        -2.613944        -0.058473        -2.755337
 H        -2.707642         1.248349        -1.598629
 H        -0.366453         0.013277        -3.077225
 H         1.304290         1.126400        -1.758002
 H         0.276144         2.323993        -1.798430
 H         0.315939         1.868315         0.732026
 H         1.278582        -0.220118         1.590874
