19
Iteration:  3774
 C        -2.306954        -1.639655        -0.937067
 C        -1.328935        -0.470907        -1.058546
 C        -1.850670         0.756677        -1.778835
 C        -0.587822        -0.100020        -2.317033
 C         0.610936         0.634361        -1.746138
 C         0.458025         0.775007        -0.251965
 O        -0.444271        -0.307888         0.037646
 C         1.629448         0.443283         0.646457
 O         2.368321         1.306683         0.951999
 H        -2.767570        -1.763276         0.103087
 H        -3.272250        -1.332313        -1.485755
 H        -1.936602        -2.606881        -1.245105
 H        -2.867535         0.739420        -2.237886
 H        -1.720959         1.714055        -1.241986
 H        -0.781297        -0.850880        -3.064201
 H         1.609162         0.075820        -1.975215
 H         0.693875         1.642834        -2.147823
 H         0.179639         1.772699        -0.026207
 H         1.610525        -0.660965         1.011183
