19
Iteration:   186charge 0 multiplicity 1
 C        -1.635310        -1.974036        -0.942745
 C        -1.440842        -0.420176        -0.911287
 C        -2.102948         0.538113        -1.839099
 C        -0.643337         0.305208        -2.050253
 C         0.513921         1.195774        -1.544821
 C         0.356537         0.961225        -0.029989
 O        -0.923829         0.224132         0.292414
 C         1.624493         0.456041         0.667879
 O         2.692165         0.226276         0.035624
 H        -2.186760        -2.340124        -0.158835
 H        -2.210647        -2.111577        -1.779463
 H        -0.742439        -2.460191        -1.027578
 H        -2.788104        -0.054965        -2.438084
 H        -2.585364         1.277593        -1.316131
 H        -0.402969        -0.134247        -3.045804
 H         1.475641         0.912343        -2.123399
 H         0.319200         2.300398        -1.731527
 H         0.258915         1.898523         0.575416
 H         1.503469         0.242350         1.790200
