19
Iteration:  1300
 C        -1.581449        -1.877191        -0.818167
 C        -1.343687        -0.400792        -0.982280
 C        -2.154840         0.492440        -1.877180
 C        -0.683483         0.324665        -2.122953
 C         0.412496         1.128793        -1.541476
 C         0.400182         0.805414        -0.003200
 O        -0.986007         0.279760         0.244672
 C         1.661487         0.205202         0.587964
 O         2.684806         0.458625         0.136574
 H        -2.122401        -1.950036         0.163787
 H        -2.191902        -2.322220        -1.627379
 H        -0.608164        -2.269379        -0.590051
 H        -2.787175         0.080071        -2.659137
 H        -2.447762         1.494153        -1.532269
 H        -0.337546        -0.254239        -3.012716
 H         1.545391         0.976207        -1.919821
 H         0.440649         2.309839        -1.559855
 H         0.463867         1.751894         0.392823
 H         1.334686        -0.286125         1.519577
