19
Iteration:  1750
 C        -1.398664        -1.910658        -0.832808
 C        -1.246582        -0.439584        -0.853870
 C        -2.076071         0.452359        -1.791791
 C        -0.540036         0.252312        -2.127967
 C         0.321243         1.400922        -1.600762
 C         0.277449         1.112100        -0.019108
 O        -0.851678         0.345457         0.267660
 C         1.417104         0.210557         0.569796
 O         2.575113         0.071073         0.035702
 H        -2.529044        -2.215624        -0.408582
 H        -1.207349        -2.417711        -1.819346
 H        -0.668291        -2.226246        -0.110073
 H        -2.824331        -0.058296        -2.431483
 H        -2.551875         1.294538        -1.281068
 H        -0.317655        -0.043276        -3.185475
 H         1.314354         1.341145        -2.016065
 H        -0.157839         2.380188        -1.658857
 H         0.218038         2.106847         0.642294
 H         1.101406        -0.282679         1.478963
