19
Iteration:  1539
 C        -1.586132        -1.890273        -0.787058
 C        -1.274847        -0.450998        -0.996039
 C        -2.164125         0.445890        -1.839889
 C        -0.560129         0.207795        -2.111032
 C         0.280897         1.400699        -1.584929
 C         0.355812         1.067741        -0.037829
 O        -0.849103         0.281426         0.301973
 C         1.492143         0.184848         0.497743
 O         2.724520         0.259140         0.195516
 H        -2.585929        -2.030263        -0.180424
 H        -1.762755        -2.323887        -1.792158
 H        -0.638690        -2.427378        -0.449892
 H        -2.770199        -0.084099        -2.549815
 H        -2.440055         1.454757        -1.589958
 H        -0.159184        -0.292165        -2.974035
 H         1.293716         1.310754        -1.978940
 H        -0.304845         2.298476        -1.684575
 H         0.454574         1.970122         0.476204
 H         1.390506        -0.628085         1.265743
