19
Iteration:  4844charge 0 multiplicity 1
 C        -1.853444        -1.857404        -0.893368
 C        -1.327111        -0.499193        -1.046355
 C        -1.855000         0.449374        -2.075422
 C        -0.393983        -0.071438        -2.157748
 C         0.640158         0.969605        -1.558308
 C         0.246015         0.922462        -0.112075
 O        -0.958516         0.345341         0.110555
 C         1.409948         0.431977         0.761964
 O         2.549830         0.695967         0.590598
 H        -2.956337        -1.747331        -0.506779
 H        -1.672149        -2.302850        -1.843264
 H        -1.081988        -2.383454        -0.295265
 H        -2.500479        -0.024232        -2.773202
 H        -2.106705         1.490495        -1.900074
 H        -0.035773        -0.711814        -3.010931
 H         1.641883         0.458703        -1.686093
 H         0.555064         1.936469        -2.070059
 H         0.275281         2.002020         0.269579
 H         1.019543        -0.026426         1.774096
