19
Iteration:  3391
 C        -1.773038        -1.848682        -0.923221
 C        -1.306345        -0.436048        -0.989262
 C        -1.999828         0.561411        -1.873379
 C        -0.503407         0.125833        -2.106471
 C         0.566344         1.100263        -1.533018
 C         0.304446         0.926834        -0.011648
 O        -0.888829         0.129841         0.309897
 C         1.487379         0.305625         0.530046
 O         2.579089         0.617318         0.249661
 H        -2.876689        -2.040065        -1.235575
 H        -1.214599        -2.675987        -1.523217
 H        -1.688103        -2.261254         0.069610
 H        -2.724346         0.243441        -2.615319
 H        -2.100749         1.593698        -1.498368
 H        -0.273383        -0.655672        -2.814906
 H         1.575012         0.875817        -1.796635
 H         0.435973         2.059395        -1.932642
 H         0.205674         2.115231         0.242114
 H         1.313699        -0.539429         1.232868
