19
Iteration:  3388
 C        -1.778278        -1.850928        -0.933319
 C        -1.317688        -0.433651        -0.963659
 C        -1.973146         0.539935        -1.845027
 C        -0.516582         0.152465        -2.114565
 C         0.559970         1.105269        -1.542000
 C         0.296518         0.956728        -0.030571
 O        -0.894611         0.120543         0.294562
 C         1.472649         0.289941         0.527573
 O         2.595417         0.611733         0.258487
 H        -2.791953        -2.043797        -1.231445
 H        -1.188376        -2.689041        -1.514716
 H        -1.768763        -2.210671         0.106199
 H        -2.788062         0.159515        -2.531327
 H        -1.995236         1.629330        -1.602555
 H        -0.169257        -0.661039        -2.809308
 H         1.638355         0.872364        -1.828722
 H         0.405642         2.131767        -1.953936
 H         0.200248         1.989329         0.241975
 H         1.325086        -0.518560         1.290911
