19
Iteration:  3166charge 0 multiplicity 1
 C        -1.437917        -1.860639        -0.824680
 C        -1.328212        -0.379419        -0.860996
 C        -1.972886         0.443315        -1.916046
 C        -0.496963         0.223972        -2.057180
 C         0.415316         1.323344        -1.483818
 C         0.239703         1.067477         0.069954
 O        -1.003870         0.327624         0.291256
 C         1.476131         0.173136         0.413562
 O         2.584689         0.224162         0.008045
 H        -1.679730        -2.037940         0.220673
 H        -2.329008        -2.261766        -1.273141
 H        -0.661533        -2.592432        -1.145225
 H        -2.593023        -0.202408        -2.520612
 H        -2.421079         1.368433        -1.636120
 H        -0.235135        -0.522044        -2.827428
 H         1.482482         1.314407        -1.706357
 H        -0.085395         2.265525        -1.575395
 H         0.259189         2.070146         0.624874
 H         1.227491        -0.635447         1.145612
