19
Iteration:   206
 C        -1.625014        -1.852560        -0.905726
 C        -1.239678        -0.417997        -0.966007
 C        -2.130237         0.477175        -1.805942
 C        -0.637198         0.212283        -2.101136
 C         0.342761         1.262663        -1.530503
 C         0.312383         1.079802         0.015065
 O        -0.839004         0.199555         0.301870
 C         1.553097         0.343212         0.578800
 O         2.690957         0.211974         0.082416
 H        -2.337084        -2.151502        -0.080669
 H        -2.275716        -2.117566        -1.712985
 H        -0.737001        -2.541275        -0.943524
 H        -2.826692         0.205181        -2.570544
 H        -2.301823         1.467638        -1.480113
 H        -0.308455        -0.399564        -2.941964
 H         1.440374         0.934578        -1.848112
 H         0.302387         2.362691        -1.992745
 H         0.232022         2.055131         0.611547
 H         1.274375        -0.173670         1.587206
