19
Iteration:  3191
 C        -1.556982        -1.886200        -0.771801
 C        -1.196988        -0.405863        -0.917128
 C        -2.025888         0.446517        -2.006353
 C        -0.508271         0.221699        -2.029736
 C         0.242027         1.406734        -1.540577
 C         0.336532         1.074624         0.027968
 O        -0.832695         0.262883         0.303242
 C         1.409384         0.174866         0.471611
 O         2.611650         0.241870         0.107685
 H        -1.441075        -2.436353         0.177392
 H        -2.807691        -2.006909        -0.974138
 H        -1.196797        -2.646041        -1.608233
 H        -2.666255        -0.039460        -2.733203
 H        -2.324376         1.465062        -1.779545
 H        -0.050865        -0.460440        -2.686703
 H         1.263343         1.396379        -1.899116
 H        -0.291135         2.325042        -1.599249
 H         0.472810         1.967229         0.600046
 H         1.189107        -0.542274         1.310523
