19
Iteration:  2566
 C        -1.815450        -1.834765        -0.868496
 C        -1.266504        -0.429002        -0.904774
 C        -2.011473         0.423406        -1.874318
 C        -0.590179         0.217408        -2.150776
 C         0.281595         1.293091        -1.541899
 C         0.354165         0.959016        -0.030775
 O        -0.795366         0.148907         0.253982
 C         1.538075         0.278818         0.494573
 O         2.782336         0.419692         0.229551
 H        -2.208985        -1.941257         0.206926
 H        -2.777211        -1.775313        -1.539178
 H        -1.058070        -2.708717        -1.036000
 H        -2.822836        -0.055017        -2.440074
 H        -2.200550         1.333500        -1.274059
 H        -0.241541        -0.368491        -3.016630
 H         1.228217         1.351222        -2.122409
 H        -0.249329         2.223103        -1.587986
 H         0.340246         1.990050         0.543162
 H         1.332669        -0.557890         1.237631
