19
Iteration:  1032charge 0 multiplicity 1
 C        -1.594614        -1.827236        -0.817588
 C        -1.255954        -0.421329        -0.919512
 C        -2.077509         0.449504        -1.795381
 C        -0.654455         0.220730        -2.115767
 C         0.416934         1.231735        -1.599301
 C         0.316382         1.053651        -0.012898
 O        -0.814208         0.251013         0.294836
 C         1.496985         0.143365         0.445486
 O         2.616165         0.372609         0.178178
 H        -2.341861        -2.001627        -0.041300
 H        -1.968127        -2.056598        -1.780522
 H        -0.740939        -2.537206        -0.690194
 H        -2.719995        -0.148258        -2.469510
 H        -2.408740         1.500246        -1.735066
 H        -0.373238        -0.189280        -3.067502
 H         1.461584         0.928512        -1.969849
 H         0.176401         2.387033        -1.776857
 H         0.165187         2.004414         0.615327
 H         1.151878        -0.583649         1.320961
