19
Iteration:  3149charge 0 multiplicity 1
 C        -1.386925        -1.867485        -0.716907
 C        -1.249004        -0.406161        -0.930680
 C        -2.081619         0.432746        -1.962202
 C        -0.541637         0.272568        -2.057810
 C         0.403489         1.314489        -1.390096
 C         0.277943         0.985845         0.076502
 O        -1.019066         0.408408         0.242518
 C         1.481903         0.105775         0.501635
 O         2.551338         0.251660        -0.067779
 H        -1.913914        -2.159164         0.205948
 H        -2.079026        -2.493013        -1.542495
 H        -0.343445        -2.298931        -0.685932
 H        -2.703644         0.147575        -2.840895
 H        -2.413898         1.399942        -1.535834
 H        -0.057637        -0.176862        -2.900383
 H         1.378663         0.942869        -1.760694
 H         0.264309         2.329310        -1.851144
 H         0.250167         1.817569         0.740604
 H         1.246320        -0.633581         1.314256
