19
Iteration:  3226charge 0 multiplicity 1
 C        -1.601015        -1.916350        -0.715871
 C        -1.249954        -0.427689        -0.971036
 C        -2.087783         0.420218        -2.042961
 C        -0.551512         0.317748        -2.161139
 C         0.306772         1.381109        -1.478485
 C         0.284718         0.952660         0.053382
 O        -0.944417         0.250337         0.208016
 C         1.554844         0.177189         0.559844
 O         2.719455         0.297977         0.148114
 H        -0.779047        -2.548698        -0.246400
 H        -2.396617        -1.654763         0.160034
 H        -2.067074        -2.414786        -1.605874
 H        -2.726669        -0.018831        -2.831862
 H        -2.436972         1.411776        -1.632902
 H        -0.041232        -0.275383        -2.960441
 H         1.344932         1.270135        -1.826575
 H         0.130180         2.438023        -1.719345
 H         0.315730         1.844853         0.622111
 H         1.387270        -0.202367         1.602675
