19
Iteration:  2045charge 0 multiplicity 1
 C        -1.618269        -1.860316        -0.794965
 C        -1.260386        -0.461519        -0.976961
 C        -2.149999         0.436899        -1.885490
 C        -0.556259         0.259346        -2.124205
 C         0.196205         1.375976        -1.568815
 C         0.365908         1.032774        -0.017791
 O        -0.816117         0.243678         0.236981
 C         1.568812         0.216145         0.586815
 O         2.700513         0.233844         0.179856
 H        -2.325211        -2.104524         0.055181
 H        -2.069338        -2.211844        -1.738652
 H        -0.693982        -2.307862        -0.576526
 H        -2.883987        -0.069575        -2.509472
 H        -2.392009         1.457178        -1.655268
 H        -0.173218        -0.294074        -3.065969
 H         1.241926         1.428288        -1.858086
 H        -0.156871         2.372299        -1.804510
 H         0.482432         1.992020         0.538809
 H         1.276365        -0.413323         1.511926
