19
Iteration:  3181
 C        -1.581993        -1.912549        -0.777460
 C        -1.284384        -0.389671        -0.903532
 C        -2.002544         0.413787        -1.956665
 C        -0.461172         0.201504        -2.070315
 C         0.271582         1.404569        -1.498780
 C         0.309158         1.067847        -0.018889
 O        -0.858809         0.312403         0.374503
 C         1.462588         0.159211         0.467075
 O         2.563671         0.240567         0.067667
 H        -1.320112        -2.344270         0.207609
 H        -2.628430        -2.241569        -1.349584
 H        -0.698481        -2.191102        -1.469356
 H        -2.677351        -0.061666        -2.674433
 H        -2.151537         1.481480        -1.752783
 H         0.039889        -0.319082        -2.856754
 H         1.309064         1.342518        -1.860141
 H        -0.050093         2.383907        -1.862961
 H         0.310336         1.857668         0.665426
 H         1.029978        -0.606241         1.176056
