19
Iteration:  3587
 C        -1.960721        -1.879650        -0.978736
 C        -1.335513        -0.438262        -1.037102
 C        -1.880373         0.693276        -1.785530
 C        -0.537893         0.114044        -2.195681
 C         0.619773         0.891525        -1.602232
 C         0.279899         0.898664        -0.156676
 O        -0.701201        -0.170411         0.240008
 C         1.414768         0.670142         0.682007
 O         2.583139         0.697592         0.430083
 H        -1.544695        -2.429956        -1.817121
 H        -1.836559        -2.480245        -0.069855
 H        -2.991546        -1.797454        -1.145013
 H        -2.746256         0.589588        -2.415693
 H        -1.818866         1.658706        -1.378122
 H        -0.432335        -0.400838        -3.154451
 H         1.616316         0.368919        -1.600482
 H         0.609449         1.881579        -2.098985
 H        -0.164715         1.931451         0.311512
 H         1.011699         0.329191         1.731549
