19
Iteration:  4497
 C        -2.271165        -1.715641        -0.948053
 C        -1.366168        -0.445634        -1.028415
 C        -2.001233         0.676952        -1.874711
 C        -0.661336         0.084548        -2.302565
 C         0.691679         0.640593        -1.721389
 C         0.423087         0.754162        -0.174473
 O        -0.548917        -0.230238         0.176305
 C         1.764936         0.422519         0.514730
 O         2.475837         1.244618         0.957442
 H        -3.247908        -1.354080        -1.233224
 H        -2.021676        -2.323157        -1.792085
 H        -2.184489        -2.177758         0.113348
 H        -2.762224         0.387463        -2.590128
 H        -2.285982         1.656571        -1.465461
 H        -0.645187        -0.542086        -3.232125
 H         1.467644        -0.103535        -1.849946
 H         0.992418         1.666533        -2.045039
 H        -0.033742         1.723614         0.124055
 H         1.949624        -0.673882         0.466621
