19
Iteration:  3501charge 0 multiplicity 1
 C        -1.758225        -1.954736        -0.882110
 C        -1.323598        -0.456520        -1.039555
 C        -2.049092         0.627241        -1.786225
 C        -0.626894         0.205579        -2.238768
 C         0.535852         1.030999        -1.695504
 C         0.317805         0.934375        -0.129572
 O        -0.696300         0.098441         0.153051
 C         1.423404         0.441398         0.738105
 O         2.617624         0.553753         0.483955
 H        -1.324587        -2.388644         0.141534
 H        -2.886227        -1.948439        -0.895728
 H        -1.335359        -2.602661        -1.715405
 H        -2.989112         0.350544        -2.233677
 H        -2.007982         1.597714        -1.360811
 H        -0.517400        -0.339360        -3.168109
 H         1.468017         0.637935        -2.051567
 H         0.472272         2.027416        -2.114472
 H         0.107776         1.909720         0.181217
 H         1.051381        -0.131004         1.625056
