19
Iteration:  3542
 C        -1.771614        -1.919018        -1.035689
 C        -1.387280        -0.407970        -1.017259
 C        -2.059481         0.642741        -1.908321
 C        -0.677105         0.226679        -2.175864
 C         0.624752         0.820911        -1.515878
 C         0.252602         0.904217        -0.087948
 O        -0.846533         0.018335         0.230399
 C         1.556269         0.571432         0.718819
 O         2.726437         0.625149         0.384440
 H        -0.880579        -2.479526        -0.979657
 H        -2.426423        -2.129349        -0.147300
 H        -2.286503        -2.122365        -1.892068
 H        -2.770233         0.155707        -2.562143
 H        -2.423806         1.589303        -1.523992
 H        -0.414869        -0.361715        -3.017214
 H         1.476957         0.067308        -1.655545
 H         0.943481         1.888459        -1.603860
 H        -0.022397         2.049995         0.179018
 H         1.275538         0.466677         1.825766
