19
Iteration:  3741
 C        -2.229326        -1.759419        -1.017506
 C        -1.415046        -0.434828        -1.052757
 C        -1.883739         0.780286        -1.793838
 C        -0.627071         0.069742        -2.297778
 C         0.695459         0.549893        -1.642792
 C         0.391280         0.693478        -0.182497
 O        -0.688939        -0.255052         0.163439
 C         1.711198         0.461928         0.555674
 O         2.524109         1.337084         0.859916
 H        -3.130074        -1.634491        -0.339097
 H        -2.602933        -2.061180        -2.092898
 H        -1.625018        -2.551192        -0.609948
 H        -2.731205         0.641773        -2.465249
 H        -1.917956         1.705964        -1.197523
 H        -0.547515        -0.554747        -3.213132
 H         1.526450        -0.207604        -1.923406
 H         1.084163         1.527126        -2.002083
 H        -0.018110         1.639974         0.098883
 H         1.896872        -0.647489         0.760828
