19
Iteration:  4557charge 0 multiplicity 1
 C        -2.166941        -1.705663        -1.028319
 C        -1.388813        -0.417138        -1.064384
 C        -1.859670         0.853387        -1.635274
 C        -0.588892         0.060748        -2.222284
 C         0.740214         0.531506        -1.680301
 C         0.336352         0.700001        -0.260369
 O        -0.624661        -0.328223         0.106630
 C         1.594384         0.458522         0.649403
 O         2.426355         1.305425         0.734729
 H        -3.260102        -1.676763        -0.597410
 H        -2.127233        -2.388791        -1.953784
 H        -1.805730        -2.322848        -0.219001
 H        -2.760077         0.701901        -2.269227
 H        -1.779228         1.861489        -1.174709
 H        -0.727454        -0.425341        -3.235602
 H         1.562938        -0.254129        -1.710006
 H         1.230923         1.376133        -2.129768
 H         0.135252         1.734610        -0.121103
 H         1.712207        -0.517444         1.052228
