19
Iteration:  3452charge 0 multiplicity 1
 C        -1.814700        -1.857796        -0.867260
 C        -1.327704        -0.421927        -1.025661
 C        -2.033849         0.530578        -1.922366
 C        -0.623055         0.177713        -2.176735
 C         0.395393         1.065556        -1.587492
 C         0.371024         0.916082        -0.067660
 O        -0.799839         0.107631         0.139805
 C         1.588511         0.330648         0.761735
 O         2.698579         0.603102         0.410175
 H        -2.288732        -2.032316         0.033772
 H        -2.463155        -2.038281        -1.721132
 H        -0.929865        -2.476094        -0.924283
 H        -2.678044         0.027623        -2.690376
 H        -2.333361         1.584852        -1.679044
 H        -0.543767        -0.474526        -3.092886
 H         1.401676         0.716770        -2.035637
 H         0.284644         2.190243        -1.824585
 H         0.244250         1.958790         0.300371
 H         1.270260        -0.230629         1.657375
