19
Iteration:  4136
 C        -2.081003        -1.754239        -0.997199
 C        -1.325204        -0.471569        -1.052956
 C        -1.837242         0.684229        -1.854418
 C        -0.511577         0.056735        -2.237244
 C         0.706499         0.689253        -1.551360
 C         0.282912         0.870281        -0.085887
 O        -0.680353        -0.191476         0.188509
 C         1.437992         0.740006         0.867984
 O         2.479201         0.818976         0.346561
 H        -2.598072        -2.059920        -1.904675
 H        -1.378291        -2.460279        -0.665654
 H        -2.919098        -1.723371        -0.311802
 H        -2.797643         0.542728        -2.415241
 H        -1.690657         1.735201        -1.595440
 H        -0.310129        -0.598530        -3.059476
 H         1.601791         0.105372        -1.743309
 H         1.056819         1.634846        -1.934027
 H        -0.051705         1.946026         0.242718
 H         1.245214         0.545650         1.952707
