19
Iteration:   440charge 0 multiplicity 1
 C        -1.494551        -1.834251        -0.706084
 C        -1.279262        -0.393739        -0.935382
 C        -2.113232         0.385798        -1.825865
 C        -0.600636         0.362798        -2.111488
 C         0.502767         1.321715        -1.517163
 C         0.267845         1.011155         0.021359
 O        -0.959758         0.280663         0.242181
 C         1.500563         0.202576         0.480571
 O         2.623945         0.205661         0.018740
 H        -2.451727        -1.900742        -0.207532
 H        -1.573015        -2.442071        -1.659861
 H        -0.762703        -2.318125        -0.071673
 H        -2.855976        -0.028964        -2.584304
 H        -2.631150         1.335828        -1.398100
 H        -0.200090        -0.282996        -2.886179
 H         1.593705         0.943872        -1.958324
 H         0.448808         2.412385        -1.759215
 H         0.164450         1.988585         0.547145
 H         1.239392        -0.675134         1.117778
