19
Iteration:  2551charge 0 multiplicity 1
 C        -1.876178        -1.887547        -0.849645
 C        -1.231939        -0.483930        -1.008038
 C        -2.082962         0.464389        -1.835163
 C        -0.576693         0.211479        -2.131576
 C         0.260238         1.315936        -1.550420
 C         0.362314         1.004209        -0.043305
 O        -0.775840         0.184392         0.278824
 C         1.642703         0.187945         0.597951
 O         2.757742         0.446279         0.186958
 H        -2.272228        -2.037364         0.145653
 H        -2.622551        -2.036592        -1.468092
 H        -1.204257        -2.589178        -1.054045
 H        -2.698459        -0.106705        -2.512741
 H        -2.496978         1.447821        -1.779801
 H        -0.281728        -0.199050        -3.092153
 H         1.300257         1.302921        -1.891212
 H         0.022648         2.404061        -1.866531
 H         0.267505         1.864716         0.613293
 H         1.322414        -0.406872         1.488279
