19
Iteration:  4593
 C        -2.208420        -1.804590        -0.993002
 C        -1.417262        -0.516090        -1.100844
 C        -1.899310         0.810839        -1.773820
 C        -0.653017         0.161282        -2.302133
 C         0.700506         0.556148        -1.672827
 C         0.463950         0.706855        -0.223484
 O        -0.646234        -0.302590         0.114768
 C         1.626797         0.551331         0.781970
 O         2.570054         1.272918         0.747411
 H        -2.953726        -1.655649        -0.079991
 H        -2.949022        -1.865406        -1.779217
 H        -1.474582        -2.625261        -1.003839
 H        -2.724697         0.561473        -2.413413
 H        -2.001919         1.828819        -1.416921
 H        -0.747992        -0.368713        -3.243577
 H         1.336474        -0.409185        -1.691920
 H         1.128052         1.453954        -2.116347
 H        -0.075017         1.658861         0.068581
 H         1.341582        -0.195236         1.495543
