19
Iteration:   450
 C        -1.520027        -1.907057        -0.679731
 C        -1.245549        -0.430996        -0.972169
 C        -2.172672         0.458127        -1.959891
 C        -0.644191         0.356326        -2.071938
 C         0.448346         1.352719        -1.483613
 C         0.342690         1.063048         0.008418
 O        -0.925918         0.276318         0.239425
 C         1.526048         0.161626         0.528703
 O         2.643641         0.214680         0.010884
 H        -2.485860        -1.934540        -0.065417
 H        -1.765452        -2.582088        -1.608308
 H        -0.825677        -2.333708         0.067497
 H        -2.611855        -0.194504        -2.755542
 H        -2.661949         1.347633        -1.438063
 H        -0.509555        -0.028254        -3.069893
 H         1.503244         0.827132        -1.788033
 H         0.339908         2.410410        -1.776649
 H         0.373687         1.914183         0.733769
 H         1.347490        -0.440903         1.439819
