19
Iteration:   172
 C        -1.615097        -1.926304        -0.935007
 C        -1.348494        -0.431572        -0.974836
 C        -2.210336         0.577123        -1.821387
 C        -0.679949         0.294627        -2.102516
 C         0.439359         1.129351        -1.499455
 C         0.353515         0.901060         0.023277
 O        -0.854176         0.220688         0.261882
 C         1.627028         0.426358         0.669208
 O         2.653873         0.266494         0.042477
 H        -2.142025        -2.281262         0.062342
 H        -2.053545        -2.207601        -1.890190
 H        -0.604002        -2.501912        -0.909165
 H        -2.804907         0.354649        -2.691602
 H        -2.309858         1.608753        -1.414001
 H        -0.502118        -0.356447        -2.936741
 H         1.476997         0.636852        -1.715599
 H         0.442942         2.311457        -1.816864
 H         0.181362         1.936310         0.484162
 H         1.727225         0.535959         1.833923
