19
Iteration:  4476
 C        -2.191607        -1.767418        -0.826408
 C        -1.360673        -0.467812        -1.075925
 C        -1.883429         0.728735        -1.827237
 C        -0.634211         0.075753        -2.241354
 C         0.642798         0.690382        -1.748671
 C         0.393277         0.824769        -0.217207
 O        -0.581654        -0.200286         0.050686
 C         1.629244         0.435302         0.453759
 O         2.433829         1.124843         0.998629
 H        -3.242439        -1.633504        -0.953665
 H        -1.837563        -2.604568        -1.473114
 H        -1.760960        -1.995391         0.232717
 H        -2.812657         0.587403        -2.396291
 H        -1.743592         1.736209        -1.405726
 H        -0.578548        -0.481012        -3.193615
 H         1.406882        -0.026877        -1.864113
 H         0.862048         1.685936        -2.252978
 H         0.139558         1.811077         0.036863
 H         1.796308        -0.611779         0.488483
