19
Iteration:   673charge 0 multiplicity 1
 C        -1.417646        -1.782591        -0.673628
 C        -1.363942        -0.316914        -0.989124
 C        -2.079446         0.556010        -1.983413
 C        -0.594903         0.238497        -2.076220
 C         0.377049         1.233358        -1.391332
 C         0.254364         0.916789         0.081489
 O        -0.931484         0.277587         0.260027
 C         1.552714         0.110901         0.477686
 O         2.584988         0.244094        -0.051863
 H        -1.952622        -1.871612         0.264835
 H        -1.591528        -2.471205        -1.411548
 H        -0.333681        -1.926033        -0.397353
 H        -2.572775         0.080876        -2.777040
 H        -2.553037         1.497259        -1.779148
 H        -0.339365        -0.363018        -2.980847
 H         1.501749         1.121472        -1.680450
 H         0.049526         2.223816        -1.668476
 H         0.185229         1.899009         0.609906
 H         1.406761        -0.527516         1.326467
