19
Iteration:  2193
 C        -1.552858        -1.896656        -0.713564
 C        -1.285034        -0.443097        -0.992925
 C        -2.040011         0.489599        -1.874890
 C        -0.571949         0.291455        -2.121310
 C         0.336953         1.369412        -1.472789
 C         0.298118         1.024975        -0.041781
 O        -0.902155         0.304919         0.241474
 C         1.524348         0.066738         0.383264
 O         2.640508         0.322841         0.206791
 H        -1.848508        -1.989341         0.281793
 H        -2.257963        -2.398677        -1.342307
 H        -0.480787        -2.371949        -0.795221
 H        -2.703726        -0.013431        -2.586925
 H        -2.469841         1.346026        -1.375441
 H        -0.309071        -0.352953        -3.001433
 H         1.331525         1.124029        -1.959169
 H        -0.202229         2.348814        -1.796341
 H         0.350964         1.813257         0.721344
 H         1.264982        -0.887578         0.878846
