19
Iteration:  1974
 C        -1.464610        -1.893050        -0.829270
 C        -1.271881        -0.430977        -0.910457
 C        -2.059209         0.514767        -1.811020
 C        -0.500454         0.218082        -2.057895
 C         0.425844         1.232033        -1.486668
 C         0.276087         1.018814        -0.044242
 O        -0.906115         0.306388         0.304425
 C         1.367646         0.131805         0.426700
 O         2.571802         0.357086         0.056424
 H        -2.060176        -2.060812         0.053189
 H        -2.088218        -2.298086        -1.616324
 H        -0.464835        -2.298334        -0.497052
 H        -2.736567         0.245676        -2.663185
 H        -2.162600         1.529229        -1.407513
 H        -0.325735        -0.327498        -2.966798
 H         1.380544         0.971680        -1.960481
 H         0.382643         2.192392        -1.875861
 H         0.122289         1.986646         0.642822
 H         1.020549        -0.567471         1.260378
