19
Iteration:  3549
 C        -1.800419        -1.904392        -1.046359
 C        -1.381588        -0.439881        -0.990432
 C        -2.078254         0.639125        -1.902392
 C        -0.633252         0.204080        -2.222650
 C         0.626058         0.827061        -1.508367
 C         0.317438         0.936486        -0.057005
 O        -0.850084         0.009048         0.253530
 C         1.550837         0.582867         0.763582
 O         2.680851         0.640106         0.355548
 H        -0.881400        -2.494533        -1.245880
 H        -2.297583        -2.174245        -0.121501
 H        -2.483104        -2.069121        -1.968494
 H        -2.819799         0.247810        -2.630975
 H        -2.332250         1.636844        -1.408817
 H        -0.440488        -0.489762        -3.084767
 H         1.490228         0.162709        -1.647864
 H         1.050884         1.752040        -1.986480
 H        -0.060803         1.946436         0.257342
 H         1.278604         0.440603         1.854604
