19
Iteration:   215charge 0 multiplicity 1
 C        -1.608609        -1.855736        -0.852735
 C        -1.270149        -0.417677        -0.946330
 C        -2.109018         0.522410        -1.866183
 C        -0.607723         0.203549        -2.144300
 C         0.338409         1.282064        -1.538075
 C         0.262531         1.052630         0.023174
 O        -0.723167         0.199258         0.286886
 C         1.518488         0.301438         0.543211
 O         2.619543         0.225928         0.102402
 H        -2.250825        -1.950023         0.166106
 H        -2.097851        -1.958614        -1.850021
 H        -0.686538        -2.606415        -0.741432
 H        -2.978088         0.085953        -2.353989
 H        -2.161780         1.475502        -1.328618
 H        -0.262702        -0.363292        -2.992609
 H         1.348827         0.933268        -1.866198
 H         0.067622         2.375584        -1.848533
 H         0.208695         1.935231         0.738790
 H         1.191707        -0.312864         1.409163
