19
Iteration:  2170charge 0 multiplicity 1
 C        -1.580713        -1.889569        -0.734370
 C        -1.169673        -0.422599        -0.907670
 C        -2.058448         0.445634        -1.818150
 C        -0.557116         0.276009        -2.176301
 C         0.310010         1.433133        -1.592449
 C         0.318620         1.042808        -0.064357
 O        -0.842462         0.215905         0.269762
 C         1.430997         0.164389         0.433113
 O         2.627367         0.258315         0.198369
 H        -2.102160        -2.009123         0.229181
 H        -2.251071        -2.069543        -1.560717
 H        -0.700738        -2.564714        -0.822294
 H        -2.759675        -0.009656        -2.550830
 H        -2.342774         1.460832        -1.537372
 H        -0.139689        -0.448033        -2.863016
 H         1.322969         1.413086        -2.074651
 H        -0.324834         2.394518        -1.448054
 H         0.296711         1.897345         0.686496
 H         1.127013        -0.765505         0.963128
