19
Iteration:   642charge 0 multiplicity 1
 C        -1.486572        -1.913760        -0.748766
 C        -1.307183        -0.419829        -0.940833
 C        -2.078941         0.503441        -1.848602
 C        -0.595530         0.308112        -2.104864
 C         0.366504         1.332927        -1.509584
 C         0.300492         0.995349        -0.068552
 O        -0.879384         0.337662         0.283581
 C         1.457681         0.157264         0.509301
 O         2.624171         0.178029         0.054132
 H        -2.143649        -2.056347         0.079686
 H        -1.739762        -2.552633        -1.560545
 H        -0.497153        -2.196963        -0.526657
 H        -2.746281         0.020457        -2.538294
 H        -2.426128         1.467087        -1.479832
 H        -0.408170        -0.329831        -2.997392
 H         1.464771         1.285928        -1.899751
 H         0.230422         2.507572        -1.708612
 H         0.252341         1.979715         0.503815
 H         1.219775        -0.455685         1.452650
