19
Iteration:   159
 C        -1.528977        -1.826481        -0.920874
 C        -1.310668        -0.372807        -0.997792
 C        -2.121254         0.634502        -1.780956
 C        -0.713080         0.257347        -2.143834
 C         0.405789         1.014084        -1.501548
 C         0.269691         1.026935         0.004884
 O        -0.862742         0.080669         0.243257
 C         1.646761         0.428197         0.677962
 O         2.652377         0.270982         0.052455
 H        -2.338964        -1.899757        -0.043082
 H        -2.173900        -2.333958        -1.751760
 H        -0.542342        -2.411893        -0.675468
 H        -2.971643         0.233665        -2.372513
 H        -2.348854         1.649413        -1.315233
 H        -0.432835        -0.272258        -3.038058
 H         1.355874         0.632356        -1.894171
 H         0.422419         2.135269        -1.867305
 H         0.107437         1.999576         0.539033
 H         1.514648         0.178126         1.817608
