19
Iteration:  1360charge 0 multiplicity 1
 C        -1.705052        -1.832559        -0.831907
 C        -1.241984        -0.409369        -0.907665
 C        -2.045132         0.517384        -1.792689
 C        -0.577862         0.157540        -2.134477
 C         0.365875         1.285191        -1.630027
 C         0.290622         1.033767        -0.034195
 O        -0.796121         0.141447         0.260728
 C         1.533501         0.242705         0.526647
 O         2.625488         0.378479         0.171429
 H        -2.387548        -1.983472        -0.063966
 H        -2.052307        -2.361431        -1.723222
 H        -0.817917        -2.491318        -0.714057
 H        -2.785195         0.044556        -2.477869
 H        -2.223845         1.556733        -1.452323
 H        -0.280200        -0.400119        -3.005427
 H         1.375198         1.165506        -1.791927
 H        -0.017547         2.209531        -1.927887
 H         0.222090         1.938769         0.755616
 H         1.265574        -0.447943         1.328190
