19
Iteration:  1344
 C        -1.602958        -1.881092        -0.842249
 C        -1.361178        -0.409403        -0.891386
 C        -1.984026         0.560788        -1.873972
 C        -0.559588         0.215516        -2.066114
 C         0.432009         1.169931        -1.536588
 C         0.294443         1.007534        -0.041986
 O        -0.848580         0.162739         0.352410
 C         1.457642         0.259914         0.478356
 O         2.630456         0.422972         0.108922
 H        -2.282598        -2.208049         0.053267
 H        -2.269782        -2.106593        -1.727961
 H        -0.700372        -2.493225        -0.840990
 H        -2.806542         0.237520        -2.518279
 H        -2.287829         1.569032        -1.495609
 H        -0.400096        -0.467650        -2.922326
 H         1.499524         0.963298        -2.047496
 H         0.221286         2.275164        -1.890333
 H         0.132287         1.917241         0.365331
 H         1.274517        -0.648479         1.126476
