19
Iteration:  2901
 C        -1.341454        -1.877798        -0.722787
 C        -1.294302        -0.365703        -0.958138
 C        -2.101322         0.433359        -1.936145
 C        -0.563005         0.297434        -2.065308
 C         0.483518         1.244576        -1.452543
 C         0.276886         1.036029         0.086991
 O        -0.988433         0.378060         0.233599
 C         1.422459         0.187225         0.460034
 O         2.549386         0.202881         0.011583
 H        -1.788541        -2.141865         0.364559
 H        -2.061528        -2.265629        -1.522253
 H        -0.434662        -2.514768        -0.942542
 H        -2.772921        -0.074528        -2.667435
 H        -2.532706         1.361768        -1.476509
 H        -0.301209        -0.279888        -2.926934
 H         1.478144         0.972377        -1.706139
 H         0.378622         2.200900        -1.872604
 H         0.334535         1.951111         0.750552
 H         1.127518        -0.476041         1.315520
