19
Iteration:  4291
 C        -1.988136        -1.741717        -0.798021
 C        -1.402425        -0.398581        -1.009575
 C        -2.054346         0.567653        -2.079813
 C        -0.654340        -0.004121        -2.264848
 C         0.469203         0.806561        -1.724839
 C         0.390429         0.844381        -0.238645
 O        -0.728164         0.132896         0.193647
 C         1.877410         0.330847         0.309702
 O         2.533462         0.898570         1.135434
 H        -1.847937        -2.309687        -1.624172
 H        -1.585391        -2.215965         0.073169
 H        -3.089819        -1.744091        -0.505878
 H        -2.954764         0.248530        -2.618494
 H        -1.908126         1.551223        -1.661789
 H        -0.464884        -0.872606        -2.987815
 H         1.434146         0.375852        -2.040723
 H         0.474610         1.888201        -2.115168
 H         0.424656         1.952350         0.237531
 H         1.985467        -0.736673        -0.130060
