19
Iteration:   133charge 0 multiplicity 1
 C        -1.655860        -1.935525        -0.836020
 C        -1.332050        -0.415427        -0.915851
 C        -2.097065         0.678719        -1.695351
 C        -0.679567         0.318142        -2.119347
 C         0.512119         1.149961        -1.625152
 C         0.316122         1.042650        -0.142172
 O        -0.655341        -0.000738         0.249710
 C         1.430806         0.348642         0.582003
 O         2.568073         0.345574         0.150900
 H        -2.450572        -2.130339        -0.187047
 H        -2.005504        -2.406071        -1.776314
 H        -0.773733        -2.453494        -0.483309
 H        -2.819930         0.489987        -2.486191
 H        -2.233579         1.666928        -1.353660
 H        -0.501894        -0.291090        -3.031970
 H         1.434613         0.781439        -1.952217
 H         0.492418         2.095048        -1.882434
 H         0.151304         1.943456         0.394148
 H         1.176942         0.020348         1.562188
