19
Iteration:  3517charge 0 multiplicity 1
 C        -1.734517        -1.899773        -0.911472
 C        -1.355511        -0.433923        -1.070786
 C        -2.108197         0.644376        -1.867401
 C        -0.719448         0.181284        -2.262390
 C         0.587750         0.949177        -1.639383
 C         0.396825         0.976278        -0.092529
 O        -0.820270         0.001032         0.172123
 C         1.498257         0.455105         0.832283
 O         2.684548         0.600661         0.413939
 H        -1.070573        -2.237778        -0.165704
 H        -2.719248        -2.097693        -0.551814
 H        -1.578907        -2.444306        -1.866381
 H        -2.909398         0.448684        -2.627201
 H        -2.338418         1.541367        -1.216014
 H        -0.489104        -0.431131        -3.166581
 H         1.508867         0.325025        -1.794633
 H         0.709344         2.022196        -1.944933
 H         0.070677         2.068520         0.359631
 H         1.214059         0.193404         1.928749
