19
Iteration:   760
 C        -1.452051        -1.839163        -0.644845
 C        -1.361368        -0.348171        -0.957960
 C        -2.087672         0.452741        -1.994329
 C        -0.582658         0.301356        -2.145929
 C         0.276218         1.396259        -1.410660
 C         0.351040         0.964076         0.062788
 O        -0.955284         0.265144         0.231781
 C         1.513892         0.203587         0.480924
 O         2.695710         0.140223        -0.001013
 H        -2.414170        -2.092173        -0.138309
 H        -1.441345        -2.535434        -1.463471
 H        -0.589237        -2.163561         0.101684
 H        -2.698232         0.014254        -2.770782
 H        -2.417434         1.413456        -1.649192
 H        -0.094769        -0.290806        -2.966737
 H         1.300116         1.458757        -1.899223
 H        -0.031329         2.354234        -1.500034
 H         0.356719         1.816267         0.749592
 H         1.293754        -0.546643         1.344990
