19
Iteration:  1124
 C        -1.691620        -1.903886        -0.781762
 C        -1.305460        -0.421485        -0.916554
 C        -2.119817         0.377979        -1.872758
 C        -0.691926         0.295652        -2.099480
 C         0.316429         1.339600        -1.578593
 C         0.338320         1.078950        -0.046737
 O        -0.759784         0.236916         0.201569
 C         1.562412         0.224647         0.407739
 O         2.785359         0.303054         0.341408
 H        -2.373195        -1.966176         0.006003
 H        -2.133919        -2.245646        -1.733939
 H        -0.888619        -2.538303        -0.570152
 H        -2.847590        -0.098338        -2.483551
 H        -2.440039         1.349323        -1.529375
 H        -0.404951        -0.329923        -2.932379
 H         1.245080         0.998252        -2.193327
 H         0.085167         2.391988        -1.817557
 H         0.357589         2.076915         0.586655
 H         1.106119        -0.687280         0.834598
