19
Iteration:  4365charge 0 multiplicity 1
 C        -1.852661        -1.804176        -0.687714
 C        -1.418116        -0.390666        -1.007428
 C        -1.957717         0.702882        -1.852217
 C        -0.623210         0.064751        -2.289228
 C         0.598398         0.770312        -1.864907
 C         0.395635         0.897180        -0.344122
 O        -0.669371         0.063534         0.117428
 C         1.657912         0.312134         0.336538
 O         2.351935         0.874968         1.106352
 H        -2.144826        -2.398262        -1.640993
 H        -1.050364        -2.249690        -0.109035
 H        -2.795242        -1.904431        -0.040603
 H        -2.818483         0.523579        -2.489693
 H        -1.832389         1.645922        -1.336935
 H        -0.768203        -0.849178        -2.945722
 H         1.506079         0.282341        -2.155222
 H         0.690803         1.773079        -2.322793
 H         0.183849         1.818559         0.034881
 H         1.509206        -0.785512         0.148795
