19
Iteration:  4672
 C        -2.064436        -1.850456        -0.835716
 C        -1.403262        -0.496525        -1.174571
 C        -1.920149         0.674480        -1.938188
 C        -0.487160         0.086150        -2.239354
 C         0.709380         0.702315        -1.589338
 C         0.282167         0.879921        -0.065488
 O        -0.750882        -0.089728         0.099863
 C         1.506479         0.500690         0.735169
 O         2.582854         1.004087         0.606062
 H        -1.311704        -2.401887        -0.303812
 H        -2.957403        -1.575770        -0.373483
 H        -2.346337        -2.274175        -1.858286
 H        -2.755643         0.414004        -2.596947
 H        -1.955230         1.688024        -1.546825
 H        -0.359093        -0.286185        -3.259807
 H         1.557669         0.037789        -1.652683
 H         1.131217         1.618545        -2.126428
 H        -0.031193         1.877538         0.287094
 H         1.248337        -0.192826         1.625309
