19
Iteration:   255charge 0 multiplicity 1
 C        -1.581010        -1.914302        -0.686932
 C        -1.283821        -0.421536        -1.007622
 C        -2.040374         0.558693        -1.924824
 C        -0.599849         0.313815        -2.119803
 C         0.374200         1.318329        -1.457455
 C         0.281999         0.996290         0.005988
 O        -0.903986         0.192423         0.207982
 C         1.561234         0.204255         0.498033
 O         2.667249         0.260797         0.043285
 H        -2.439658        -1.907468        -0.019078
 H        -1.829192        -2.516509        -1.600294
 H        -0.859538        -2.322535         0.001737
 H        -2.955291         0.129774        -2.460693
 H        -2.393815         1.370500        -1.158819
 H        -0.246468        -0.206170        -2.996112
 H         1.424468         1.192552        -1.725387
 H         0.071043         2.291636        -1.691657
 H         0.180734         1.898131         0.624851
 H         1.294151        -0.365750         1.492904
