19
Iteration:  4781charge 0 multiplicity 1
 C        -1.798609        -1.817404        -0.705632
 C        -1.346310        -0.423473        -1.145838
 C        -1.894588         0.594066        -2.147508
 C        -0.480002         0.000931        -2.273786
 C         0.585757         0.952519        -1.711040
 C         0.301876         0.898778        -0.170601
 O        -0.846639         0.091745         0.158724
 C         1.403055         0.421150         0.886805
 O         2.567407         0.722038         0.662059
 H        -2.528091        -2.404520        -1.436123
 H        -1.021277        -2.577160        -0.732223
 H        -2.464501        -1.714231         0.261588
 H        -2.605013         0.142427        -2.841317
 H        -1.975782         1.678451        -1.862280
 H        -0.326208        -0.679360        -3.224984
 H         1.561645         0.518968        -1.755063
 H         0.537089         2.035310        -2.097187
 H        -0.050266         1.958259         0.135318
 H         1.092702        -0.005584         1.831170
