19
Iteration:   759charge 0 multiplicity 1
 C        -1.454208        -1.839144        -0.644705
 C        -1.363533        -0.349188        -0.955397
 C        -2.080819         0.460871        -1.999188
 C        -0.575918         0.301988        -2.140875
 C         0.268392         1.395735        -1.411345
 C         0.348671         0.970572         0.055122
 O        -0.948606         0.259158         0.240555
 C         1.507996         0.197839         0.478972
 O         2.698139         0.138293         0.001060
 H        -2.429593        -2.104952        -0.141250
 H        -1.446569        -2.534073        -1.467838
 H        -0.580889        -2.170432         0.114550
 H        -2.667003        -0.008916        -2.748814
 H        -2.430088         1.407376        -1.643577
 H        -0.074434        -0.260559        -2.977962
 H         1.271440         1.432168        -1.915617
 H        -0.074296         2.408070        -1.527769
 H         0.345702         1.829925         0.695703
 H         1.286512        -0.539773         1.337168
