19
Iteration:   927
 C        -1.519589        -1.911310        -0.869802
 C        -1.297708        -0.458575        -0.924427
 C        -1.948125         0.645494        -1.715892
 C        -0.522074         0.103669        -2.025399
 C         0.412865         1.242034        -1.593257
 C         0.239576         1.077490        -0.018773
 O        -0.915098         0.221700         0.320404
 C         1.379778         0.302575         0.484324
 O         2.574696         0.285137         0.002315
 H        -2.411776        -2.268817        -0.253944
 H        -1.593629        -2.326512        -1.965061
 H        -0.559876        -2.328137        -0.409680
 H        -2.751848         0.404950        -2.448290
 H        -1.921412         1.719352        -1.362601
 H        -0.407013        -0.553372        -2.903055
 H         1.474273         0.879348        -1.715096
 H         0.487622         2.171415        -1.967097
 H         0.112579         1.921418         0.542579
 H         1.077619        -0.261095         1.465312
