19
Iteration:  4854
 C        -1.784173        -1.858744        -0.850869
 C        -1.347741        -0.408792        -1.083070
 C        -1.846985         0.456504        -2.183103
 C        -0.407745        -0.039414        -2.138611
 C         0.590966         0.908948        -1.571055
 C         0.298800         0.990985        -0.104689
 O        -0.991861         0.260781         0.097791
 C         1.386995         0.414082         0.809191
 O         2.585219         0.686260         0.585728
 H        -2.720847        -1.880317        -0.158643
 H        -2.160945        -2.329770        -1.766677
 H        -1.119906        -2.409027        -0.182202
 H        -2.563530         0.085759        -2.866291
 H        -1.941100         1.465273        -1.822474
 H        -0.061446        -0.728518        -2.918065
 H         1.727102         0.754348        -1.637828
 H         0.456837         1.904476        -1.994881
 H         0.066371         1.972643         0.279144
 H         1.142920        -0.055279         1.793111
