19
Iteration:  2222
 C        -1.428129        -1.823797        -0.762160
 C        -1.365155        -0.347411        -0.974186
 C        -2.151990         0.463782        -1.998018
 C        -0.651871         0.245142        -2.076501
 C         0.399712         1.246938        -1.446328
 C         0.303104         0.905802        -0.017647
 O        -0.982295         0.380994         0.328006
 C         1.554336        -0.042632         0.382433
 O         2.719267         0.443381         0.183438
 H        -2.115393        -1.871829         0.221440
 H        -1.852754        -2.297494        -1.697426
 H        -0.432007        -2.128779        -0.667561
 H        -2.823032        -0.082553        -2.704501
 H        -2.671995         1.375240        -1.644828
 H        -0.328290        -0.305847        -2.921190
 H         1.293364         0.941367        -1.896229
 H         0.172603         2.260179        -1.749491
 H         0.635410         1.678869         0.847285
 H         1.409928        -1.038029         0.930809
