19
Iteration:   643
 C        -1.483528        -1.905990        -0.740086
 C        -1.301447        -0.412483        -0.938440
 C        -2.076945         0.503679        -1.863073
 C        -0.601494         0.310246        -2.110579
 C         0.367448         1.327910        -1.508975
 C         0.303242         0.991186        -0.058819
 O        -0.886390         0.327767         0.285813
 C         1.457437         0.153530         0.513368
 O         2.624753         0.181245         0.048621
 H        -2.139988        -2.031666         0.117546
 H        -1.715579        -2.586422        -1.587091
 H        -0.484524        -2.172675        -0.535198
 H        -2.813303         0.041069        -2.535541
 H        -2.408336         1.482630        -1.479163
 H        -0.384158        -0.333516        -2.994087
 H         1.440057         1.299265        -1.898331
 H         0.242731         2.516674        -1.729499
 H         0.241000         1.982889         0.485535
 H         1.231791        -0.477446         1.469868
