19
Iteration:  1138charge 0 multiplicity 1
 C        -1.706630        -1.931111        -0.796888
 C        -1.238647        -0.477923        -0.963012
 C        -2.170214         0.461875        -1.808128
 C        -0.564440         0.226856        -2.151437
 C         0.351304         1.349838        -1.628825
 C         0.380175         1.109570        -0.106970
 O        -0.847035         0.236681         0.347962
 C         1.502980         0.187115         0.356374
 O         2.774694         0.343279         0.333815
 H        -2.359109        -2.019175         0.192673
 H        -2.361781        -2.144275        -1.620385
 H        -0.930199        -2.709562        -0.645985
 H        -2.788054         0.008193        -2.597709
 H        -2.468445         1.385791        -1.345952
 H        -0.245446        -0.270100        -3.073687
 H         1.345105         1.387086        -1.890761
 H        -0.031808         2.250947        -1.856588
 H         0.207134         2.058618         0.526306
 H         1.150491        -0.854116         0.787080
