19
Iteration:  1828charge 0 multiplicity 1
 C        -1.401813        -1.856628        -0.776639
 C        -1.372931        -0.399536        -0.946316
 C        -2.074707         0.476923        -1.923284
 C        -0.509743         0.221315        -2.054671
 C         0.421224         1.299209        -1.443478
 C         0.236738         1.005110         0.063834
 O        -1.026128         0.351362         0.274917
 C         1.518592         0.154077         0.524858
 O         2.599606         0.233049        -0.075832
 H        -1.720815        -2.129975         0.304350
 H        -1.914979        -2.398092        -1.592003
 H        -0.383991        -2.188081        -0.813832
 H        -2.599341         0.017192        -2.751671
 H        -2.578931         1.375799        -1.621390
 H        -0.119317        -0.448930        -2.795432
 H         1.428610         1.171221        -1.680229
 H         0.213523         2.314309        -1.726950
 H         0.404875         1.969621         0.789319
 H         1.278374        -0.353455         1.552059
