19
Iteration:  2690charge 0 multiplicity 1
 C        -1.615026        -1.889908        -0.730844
 C        -1.275429        -0.430798        -0.986395
 C        -2.148290         0.516144        -1.824529
 C        -0.689328         0.227068        -2.197168
 C         0.303453         1.321775        -1.599542
 C         0.394548         1.020685        -0.121538
 O        -0.721138         0.183066         0.241125
 C         1.546393         0.215571         0.498814
 O         2.688554         0.297592         0.330236
 H        -2.552530        -1.793944        -0.147573
 H        -1.966639        -2.310548        -1.738284
 H        -0.709241        -2.453680        -0.209102
 H        -2.834835        -0.012879        -2.443400
 H        -2.507102         1.489151        -1.512057
 H        -0.351049        -0.136279        -3.159230
 H         1.215421         1.502740        -2.119476
 H        -0.144084         2.232429        -1.806658
 H         0.129670         1.987991         0.500371
 H         1.062474        -0.482568         1.222402
