19
Iteration:  1090charge 0 multiplicity 1
 C        -1.463420        -1.820680        -0.739405
 C        -1.392905        -0.397203        -0.989316
 C        -2.151263         0.541367        -1.897679
 C        -0.737394         0.281660        -2.176860
 C         0.356660         1.203800        -1.595216
 C         0.385553         0.771355        -0.058455
 O        -0.918508         0.295416         0.282254
 C         1.604932         0.118099         0.495333
 O         2.695403         0.437199         0.245261
 H        -2.309790        -2.026953        -0.193520
 H        -1.587160        -2.456553        -1.636105
 H        -0.583252        -2.069496        -0.188455
 H        -3.004611         0.251104        -2.512043
 H        -2.172969         1.518797        -1.398722
 H        -0.405002        -0.456147        -2.929496
 H         1.308155         1.114767        -2.325408
 H         0.183195         2.331950        -1.494603
 H         0.518440         1.804502         0.600949
 H         1.396393        -0.626939         1.365108
