19
Iteration:  1521charge 0 multiplicity 1
 C        -1.607515        -1.889536        -0.738837
 C        -1.314101        -0.416511        -0.943792
 C        -2.083829         0.434803        -1.991711
 C        -0.668914         0.292329        -2.169593
 C         0.221501         1.379374        -1.509690
 C         0.343179         0.967392        -0.038989
 O        -0.844523         0.237173         0.201400
 C         1.582116         0.255710         0.576127
 O         2.814194         0.239464         0.201231
 H        -2.282350        -1.807198         0.162152
 H        -2.081864        -2.252143        -1.632458
 H        -0.671640        -2.391184        -0.630300
 H        -2.862048        -0.198863        -2.547442
 H        -2.501441         1.372322        -1.570864
 H        -0.342418        -0.410453        -2.917701
 H         1.207996         1.346089        -2.078396
 H        -0.315441         2.364885        -1.433372
 H         0.302158         1.974565         0.700151
 H         1.376261        -0.424481         1.489083
