19
Iteration:  2522
 C        -1.676527        -1.841591        -0.786400
 C        -1.399146        -0.411941        -1.016385
 C        -2.072133         0.599077        -1.879278
 C        -0.594212         0.252085        -2.081181
 C         0.361451         1.147449        -1.495884
 C         0.323013         0.948106        -0.043522
 O        -0.867892         0.073921         0.252434
 C         1.597846         0.269712         0.551817
 O         2.737360         0.460030         0.117471
 H        -2.305461        -1.989044         0.209125
 H        -2.306225        -2.359097        -1.650591
 H        -0.583418        -2.282330        -0.627178
 H        -2.726872         0.118968        -2.610951
 H        -2.385201         1.597358        -1.505961
 H        -0.308133        -0.260300        -3.004440
 H         1.389890         0.883808        -1.834125
 H         0.302160         2.165210        -1.774744
 H         0.198903         1.886118         0.626516
 H         1.335596        -0.374015         1.450360
