19
Iteration:  1372
 C        -1.702611        -1.879357        -0.821141
 C        -1.266451        -0.458476        -1.027847
 C        -2.096799         0.461467        -1.817229
 C        -0.590871         0.215477        -2.139365
 C         0.330790         1.301474        -1.530335
 C         0.364292         1.015704        -0.043899
 O        -0.786514         0.153084         0.237839
 C         1.550959         0.289916         0.575012
 O         2.697620         0.349991         0.182079
 H        -2.500553        -1.738213        -0.152720
 H        -2.211241        -2.208553        -1.779700
 H        -0.965646        -2.433758        -0.192808
 H        -2.964350         0.084949        -2.352262
 H        -2.180883         1.480470        -1.515533
 H        -0.319329        -0.375564        -3.006720
 H         1.217545         1.212527        -2.030927
 H         0.019088         2.285750        -1.710087
 H         0.120358         2.110264         0.477564
 H         1.151200        -0.342193         1.390426
