19
Iteration:  3831charge 0 multiplicity 1
 C        -2.192986        -1.676205        -0.890310
 C        -1.396885        -0.420485        -1.076966
 C        -1.949139         0.778364        -1.705143
 C        -0.636610         0.002710        -2.300513
 C         0.707687         0.460898        -1.797093
 C         0.538216         0.732381        -0.329618
 O        -0.597063        -0.183482         0.002464
 C         1.741820         0.387189         0.607505
 O         2.253523         1.342797         1.072537
 H        -1.936338        -2.038901         0.188364
 H        -3.206353        -1.565884        -1.097468
 H        -1.829053        -2.508288        -1.614428
 H        -2.834586         0.641377        -2.416628
 H        -1.792119         1.805267        -1.243527
 H        -0.881306        -0.250692        -3.337030
 H         1.363502        -0.568492        -1.693275
 H         1.333894         1.167651        -2.343355
 H         0.365836         1.746112        -0.210793
 H         2.169976        -0.650136         0.687375
