19
Iteration:   576charge 0 multiplicity 1
 C        -1.452816        -1.882240        -0.746866
 C        -1.409635        -0.389575        -0.949605
 C        -2.137989         0.552773        -1.939372
 C        -0.698113         0.264745        -2.052547
 C         0.374008         1.347144        -1.525437
 C         0.335978         0.980456        -0.077810
 O        -0.831966         0.194998         0.243921
 C         1.580266         0.285898         0.606292
 O         2.621199         0.131573         0.068035
 H        -2.256052        -1.969053        -0.055755
 H        -1.526743        -2.487618        -1.598056
 H        -0.553029        -2.124794        -0.234500
 H        -2.797345         0.304258        -2.714834
 H        -2.394527         1.460546        -1.485749
 H        -0.268433        -0.466636        -2.739573
 H         1.384619         1.308661        -2.060243
 H         0.103743         2.471935        -1.748577
 H         0.273593         1.972110         0.438577
 H         1.306417        -0.130084         1.616202
