19
Iteration:  1201charge 0 multiplicity 1
 C        -1.587368        -1.817035        -0.695330
 C        -1.441296        -0.339083        -0.944017
 C        -2.169461         0.491526        -1.947240
 C        -0.658607         0.281160        -2.142609
 C         0.405338         1.172946        -1.466089
 C         0.317038         0.854486         0.020084
 O        -0.999151         0.246708         0.251370
 C         1.699161         0.051111         0.366700
 O         2.798994         0.548883         0.237231
 H        -2.371043        -2.106161        -0.062111
 H        -1.868742        -2.178405        -1.671065
 H        -0.655992        -2.212122        -0.476982
 H        -2.671400         0.065403        -2.780709
 H        -2.520129         1.468459        -1.772468
 H        -0.222221        -0.373654        -2.888071
 H         1.385084         0.752985        -1.980172
 H         0.411833         2.328525        -1.631922
 H         0.408732         1.748643         0.737638
 H         1.528176        -1.069128         0.606938
