19
Iteration:  2782
 C        -1.603729        -1.872445        -0.827455
 C        -1.313739        -0.443739        -0.942695
 C        -1.978619         0.477956        -1.897293
 C        -0.539222         0.147501        -2.067967
 C         0.336471         1.244166        -1.470035
 C         0.248827         1.069183         0.017101
 O        -0.892725         0.268054         0.316675
 C         1.557282         0.238615         0.509959
 O         2.609755         0.341122         0.024663
 H        -2.511754        -2.017522        -0.139753
 H        -2.013459        -2.227792        -1.803530
 H        -0.705454        -2.441053        -0.549934
 H        -2.781634         0.179226        -2.592191
 H        -1.997963         1.512641        -1.476505
 H        -0.032670        -0.518994        -2.750815
 H         1.401586         1.241398        -1.767877
 H         0.098795         2.263051        -1.843455
 H         0.346960         2.004591         0.597700
 H         1.236761        -0.591538         1.194537
