19
Iteration:  1584
 C        -1.394377        -1.903959        -0.800321
 C        -1.361803        -0.349481        -0.935739
 C        -2.073023         0.525366        -1.907199
 C        -0.583463         0.277866        -2.062575
 C         0.432079         1.215280        -1.482159
 C         0.323182         0.930948         0.055842
 O        -1.001976         0.378830         0.295819
 C         1.512476         0.105630         0.410058
 O         2.597964         0.366575         0.035295
 H        -2.449372        -2.242957        -0.243307
 H        -1.258117        -2.730532        -1.490937
 H        -0.625034        -2.014252         0.005088
 H        -2.763227        -0.049046        -2.546702
 H        -2.441215         1.379767        -1.362992
 H        -0.305952        -0.262926        -2.931980
 H         1.401215         0.771233        -1.744324
 H         0.098153         2.228082        -1.716735
 H         0.274178         1.780510         0.641465
 H         1.270680        -0.908254         0.941702
