19
Iteration:  1065
 C        -1.464054        -1.914521        -0.769192
 C        -1.419661        -0.412956        -0.986018
 C        -2.161883         0.580391        -1.810634
 C        -0.649909         0.238188        -2.053850
 C         0.522166         1.094948        -1.531887
 C         0.295353         0.980668         0.027543
 O        -0.967013         0.311814         0.217463
 C         1.520299         0.117760         0.447044
 O         2.696399         0.444671         0.149958
 H        -2.351473        -2.258429        -0.216770
 H        -1.607005        -2.438320        -1.686553
 H        -0.454224        -2.154531        -0.299799
 H        -2.805468         0.276505        -2.689022
 H        -2.344547         1.600378        -1.396409
 H        -0.638112        -0.181649        -3.065606
 H         1.556973         0.870414        -2.033720
 H         0.389172         2.281678        -1.828844
 H         0.433404         1.999210         0.580702
 H         1.440404        -0.823275         1.073581
