19
Iteration:  1263
 C        -1.650146        -1.858729        -0.785522
 C        -1.290807        -0.410365        -1.009212
 C        -2.135248         0.512300        -1.773549
 C        -0.637155         0.241619        -2.180736
 C         0.280014         1.265718        -1.638753
 C         0.345169         1.083769        -0.019888
 O        -0.768305         0.142165         0.258640
 C         1.572955         0.281224         0.460054
 O         2.728501         0.302990         0.324346
 H        -2.553887        -2.001322        -0.189309
 H        -1.702571        -2.503769        -1.797062
 H        -0.763057        -2.448005        -0.270066
 H        -2.863784         0.088134        -2.450208
 H        -2.295958         1.541700        -1.469561
 H        -0.417560        -0.461964        -2.958076
 H         1.191335         0.998956        -2.163106
 H        -0.073291         2.285792        -1.888825
 H         0.177532         2.051120         0.479839
 H         1.133746        -0.573320         0.946849
