19
Iteration:  3537charge 0 multiplicity 1
 C        -1.735240        -1.881956        -0.998273
 C        -1.411584        -0.402710        -1.060537
 C        -2.064258         0.626858        -1.899690
 C        -0.644047         0.255567        -2.112077
 C         0.590216         0.822746        -1.554438
 C         0.219770         0.866462        -0.088237
 O        -0.827206         0.032497         0.202823
 C         1.520695         0.590530         0.730002
 O         2.764001         0.605476         0.398468
 H        -0.859947        -2.581576        -0.638292
 H        -2.489493        -2.137651        -0.271557
 H        -2.224314        -2.273094        -2.034571
 H        -2.801129         0.140597        -2.571987
 H        -2.408994         1.646383        -1.587260
 H        -0.494723        -0.275712        -3.108084
 H         1.369721         0.123305        -1.728205
 H         0.852152         1.867897        -1.694494
 H         0.002503         1.925560         0.184336
 H         1.368179         0.317427         1.824742
