19
Iteration:  2493
 C        -1.567651        -1.907170        -0.841290
 C        -1.369819        -0.385180        -0.967611
 C        -2.082988         0.643283        -1.770022
 C        -0.620465         0.253378        -2.122689
 C         0.474511         1.046046        -1.586691
 C         0.379628         0.962397        -0.050476
 O        -0.897746         0.165947         0.276866
 C         1.512064         0.251283         0.606492
 O         2.580768         0.476513         0.080286
 H        -2.395582        -2.176128        -0.366872
 H        -1.516545        -2.255195        -1.899355
 H        -0.684745        -2.202275        -0.297577
 H        -2.974122         0.293348        -2.310468
 H        -2.083115         1.530636        -1.098647
 H        -0.454065        -0.471226        -2.955385
 H         1.413937         0.553635        -1.940878
 H         0.382277         2.156516        -1.727054
 H         0.386430         1.891365         0.463859
 H         1.291935        -0.478367         1.391816
