19
Iteration:  2021charge 0 multiplicity 1
 C        -1.574021        -1.854234        -0.754814
 C        -1.350097        -0.475140        -0.996166
 C        -2.161347         0.463927        -2.023813
 C        -0.606414         0.342378        -2.111527
 C         0.271184         1.359072        -1.486248
 C         0.381914         0.930521        -0.032774
 O        -0.908159         0.237365         0.244495
 C         1.647819         0.272922         0.539949
 O         2.748852         0.221578         0.193179
 H        -1.969859        -1.993293         0.220605
 H        -2.345743        -2.168755        -1.425779
 H        -0.526873        -2.335098        -0.709502
 H        -2.794768        -0.246137        -2.512600
 H        -2.749161         1.311696        -1.677343
 H        -0.211938        -0.375804        -2.832817
 H         1.251209         1.415578        -1.952991
 H        -0.065865         2.349906        -1.643364
 H         0.385189         1.959723         0.594848
 H         1.276602        -0.252660         1.506339
