19
Iteration:  1678charge 0 multiplicity 1
 C        -1.448844        -1.888101        -0.731224
 C        -1.229500        -0.467076        -0.936273
 C        -2.028706         0.486605        -1.892503
 C        -0.545179         0.234199        -2.072094
 C         0.324084         1.393714        -1.491228
 C         0.259792         1.028506         0.017395
 O        -0.871325         0.307698         0.254788
 C         1.491243         0.240893         0.535019
 O         2.518216         0.153423        -0.019083
 H        -1.962807        -2.140927         0.077727
 H        -2.084577        -2.220041        -1.573178
 H        -0.515096        -2.506221        -0.832325
 H        -2.699567        -0.046341        -2.569249
 H        -2.393929         1.384917        -1.448075
 H        -0.243794        -0.100516        -3.046178
 H         1.394069         1.257752        -1.785265
 H        -0.143613         2.374523        -1.686519
 H         0.358537         2.001368         0.681239
 H         1.067595        -0.246368         1.446048
