19
Iteration:  3777
 C        -2.315777        -1.611727        -0.914569
 C        -1.366777        -0.476920        -1.083555
 C        -1.842973         0.749896        -1.783776
 C        -0.592544        -0.088157        -2.323091
 C         0.590732         0.625385        -1.741467
 C         0.461151         0.766554        -0.247802
 O        -0.425572        -0.310254         0.012555
 C         1.620711         0.443928         0.631312
 O         2.376883         1.311763         0.981002
 H        -2.595716        -1.770137         0.227343
 H        -3.171630        -1.421401        -1.477155
 H        -1.964802        -2.674254        -1.352360
 H        -2.913502         0.666953        -2.177336
 H        -1.581228         1.705758        -1.260570
 H        -0.755758        -0.832770        -3.060680
 H         1.612780         0.031565        -1.927571
 H         0.666452         1.644677        -2.106621
 H         0.213839         1.809133        -0.087148
 H         1.632059        -0.593778         1.086265
