19
Iteration:  1073charge 0 multiplicity 1
 C        -1.449283        -1.921560        -0.745075
 C        -1.408602        -0.361768        -0.935531
 C        -2.164529         0.654838        -1.838972
 C        -0.629928         0.247264        -2.100855
 C         0.412507         1.131176        -1.532491
 C         0.313469         0.890077        -0.032973
 O        -0.969810         0.305047         0.164098
 C         1.614710         0.083623         0.493175
 O         2.676934         0.455540         0.180245
 H        -2.284062        -2.353485        -0.006356
 H        -1.428071        -2.395435        -1.740076
 H        -0.529078        -2.241673        -0.173413
 H        -2.791177         0.233624        -2.601382
 H        -2.419581         1.615698        -1.393676
 H        -0.621388        -0.231840        -3.067653
 H         1.360226         0.863415        -1.797221
 H         0.163474         2.110516        -1.911081
 H         0.517897         1.753918         0.485453
 H         1.455738        -0.714650         1.196714
