19
Iteration:   309charge 0 multiplicity 1
 C        -1.489407        -1.845802        -0.830957
 C        -1.377838        -0.309592        -0.827173
 C        -2.058935         0.467817        -1.914844
 C        -0.552424         0.164311        -2.069164
 C         0.321577         1.271637        -1.522029
 C         0.296896         1.025735         0.037080
 O        -0.881501         0.322052         0.353395
 C         1.513162         0.137201         0.449471
 O         2.627735         0.257475         0.041807
 H        -2.267723        -2.119328        -0.233286
 H        -1.616065        -2.183409        -1.864617
 H        -0.588710        -2.189702        -0.473149
 H        -2.685554        -0.156703        -2.631480
 H        -2.155957         1.653915        -1.827258
 H        -0.224613        -0.389912        -2.936890
 H         1.396696         1.166911        -1.892826
 H        -0.121606         2.230525        -1.792086
 H         0.357303         1.971143         0.625488
 H         1.130179        -0.705444         1.030097
