19
Iteration:  4428charge 0 multiplicity 1
 C        -1.934552        -1.815391        -0.830286
 C        -1.414999        -0.384904        -0.993558
 C        -2.122926         0.651932        -1.882938
 C        -0.726073         0.102935        -2.275316
 C         0.640162         0.677282        -1.840397
 C         0.495823         0.830368        -0.359925
 O        -0.581398         0.082724         0.101818
 C         1.672341         0.272184         0.521577
 O         2.415534         1.035418         1.124736
 H        -3.014351        -1.712324        -1.280311
 H        -1.532823        -2.566360        -1.532043
 H        -1.885834        -2.280489         0.139778
 H        -2.953526         0.439181        -2.565404
 H        -2.183841         1.619987        -1.390452
 H        -0.701017        -0.615312        -3.110810
 H         1.454344        -0.114816        -2.011102
 H         0.874358         1.610817        -2.266758
 H         0.539528         2.003116        -0.193659
 H         1.747235        -0.781058         0.734638
