19
Iteration:  3919
 C        -2.240411        -1.701291        -0.719233
 C        -1.422388        -0.509180        -1.063942
 C        -1.913268         0.688245        -1.909406
 C        -0.577791         0.102771        -2.259097
 C         0.747910         0.674192        -1.910658
 C         0.466671         0.754610        -0.242286
 O        -0.551779        -0.134704         0.039156
 C         1.639154         0.350700         0.540131
 O         2.348627         1.201237         1.054526
 H        -3.106541        -1.358910        -0.143583
 H        -2.515421        -2.266930        -1.530405
 H        -1.625946        -2.404851        -0.083101
 H        -2.661892         0.284701        -2.604916
 H        -2.008878         1.649582        -1.346549
 H        -0.609054        -0.430719        -3.265194
 H         1.472184        -0.015685        -2.229257
 H         0.900248         1.699660        -2.077805
 H         0.196957         1.717089         0.139260
 H         1.820651        -0.757513         0.626406
