19
Iteration:  3306charge 0 multiplicity 1
 C        -1.617860        -1.959440        -0.849753
 C        -1.310734        -0.426897        -1.019715
 C        -2.136145         0.537523        -1.886975
 C        -0.651746         0.221991        -2.125617
 C         0.442172         1.232629        -1.598001
 C         0.364853         0.978003        -0.029174
 O        -0.854537         0.218636         0.160289
 C         1.469421         0.331805         0.626565
 O         2.709183         0.386182         0.332315
 H        -1.059563        -2.518924        -1.683386
 H        -1.236315        -2.195214         0.096853
 H        -2.680222        -2.134806        -0.780373
 H        -2.966864         0.055624        -2.376623
 H        -2.312263         1.474864        -1.406870
 H        -0.284957        -0.366332        -2.949976
 H         1.356105         0.680279        -1.863509
 H         0.413394         2.305000        -2.013885
 H         0.272364         1.900977         0.436090
 H         1.110406        -0.376254         1.443035
