19
Iteration:   229
 C        -1.599364        -1.853885        -0.753445
 C        -1.273877        -0.364134        -0.936641
 C        -2.027598         0.571340        -1.815962
 C        -0.585851         0.270237        -2.136287
 C         0.352889         1.289461        -1.550523
 C         0.342569         1.060998        -0.050118
 O        -0.758897         0.070219         0.259883
 C         1.440174         0.224662         0.541661
 O         2.574189         0.259522         0.088450
 H        -2.307944        -2.025078         0.026929
 H        -2.016832        -2.379336        -1.565944
 H        -0.680363        -2.325861        -0.451931
 H        -2.734818         0.002787        -2.432744
 H        -2.310680         1.544111        -1.586028
 H        -0.304942        -0.315023        -3.032867
 H         1.441409         1.409814        -1.990652
 H        -0.117136         2.346591        -1.727597
 H         0.124772         2.061494         0.425415
 H         1.083000        -0.500919         1.365792
