19
Iteration:  1851
 C        -1.419586        -1.907682        -0.767146
 C        -1.253548        -0.444113        -0.896484
 C        -1.992916         0.491362        -1.960657
 C        -0.527125         0.235176        -2.046790
 C         0.423035         1.275154        -1.474881
 C         0.243360         1.053673         0.095781
 O        -0.930482         0.346445         0.320988
 C         1.454138         0.149754         0.454267
 O         2.486926         0.282128        -0.049180
 H        -2.023354        -2.197507         0.164540
 H        -1.995599        -2.067585        -1.704707
 H        -0.542202        -2.572286        -0.803741
 H        -2.814465         0.081102        -2.510493
 H        -2.348414         1.460224        -1.576618
 H        -0.180054        -0.424000        -2.859186
 H         1.419860         1.179698        -1.797677
 H         0.111750         2.218061        -1.809506
 H         0.396630         2.093741         0.690056
 H         0.943499        -0.581041         1.196396
