19
Iteration:   908
 C        -1.482656        -1.903068        -0.837776
 C        -1.340736        -0.362166        -0.902325
 C        -2.061389         0.579163        -1.866774
 C        -0.606820         0.230339        -2.070786
 C         0.430306         1.164932        -1.545832
 C         0.320127         1.022569        -0.021522
 O        -0.845200         0.232445         0.268434
 C         1.461471         0.295389         0.629875
 O         2.558106         0.247072         0.009258
 H        -2.359514        -2.303958        -0.234569
 H        -1.485167        -2.338426        -1.864824
 H        -0.674379        -2.377392        -0.338781
 H        -2.839702         0.248370        -2.535777
 H        -2.216893         1.512989        -1.360826
 H        -0.313240        -0.381169        -2.964284
 H         1.434170         1.103195        -1.847145
 H        -0.050663         2.183496        -1.769192
 H         0.151491         2.055788         0.485266
 H         1.305256        -0.217893         1.554955
