19
Iteration:  2533
 C        -1.750384        -1.864908        -0.797654
 C        -1.404602        -0.430146        -0.957250
 C        -2.094581         0.494126        -1.931779
 C        -0.639498         0.261911        -2.123949
 C         0.445355         1.268495        -1.498423
 C         0.378616         0.929725         0.007290
 O        -0.837510         0.099778         0.231994
 C         1.619773         0.327192         0.527941
 O         2.754695         0.431041         0.159161
 H        -2.302880        -1.973774         0.252744
 H        -2.527865        -2.206118        -1.639734
 H        -0.937642        -2.731499        -0.858099
 H        -2.898234         0.138935        -2.575873
 H        -2.403958         1.441630        -1.423656
 H        -0.160423        -0.355288        -2.879151
 H         1.465739         1.172597        -1.910417
 H        -0.004139         2.205666        -1.722141
 H         0.116513         1.885384         0.627107
 H         1.335224        -0.421132         1.343868
