19
Iteration:  1518charge 0 multiplicity 1
 C        -1.612248        -1.870600        -0.727396
 C        -1.319770        -0.431665        -0.976985
 C        -2.094139         0.452616        -1.987912
 C        -0.654432         0.295170        -2.149084
 C         0.215350         1.381229        -1.509943
 C         0.340657         0.950089        -0.042547
 O        -0.848128         0.227837         0.196359
 C         1.587912         0.271216         0.577635
 O         2.810875         0.239470         0.204119
 H        -2.301102        -1.811753         0.256583
 H        -2.106040        -2.258048        -1.602836
 H        -0.608051        -2.320842        -0.710521
 H        -2.741725        -0.240254        -2.505776
 H        -2.568634         1.344515        -1.616802
 H        -0.301853        -0.360369        -2.908064
 H         1.155370         1.267940        -2.056685
 H        -0.298028         2.315464        -1.390285
 H         0.349010         1.909225         0.588525
 H         1.468703        -0.416068         1.517849
