19
Iteration:  4963charge 0 multiplicity 1
 C        -1.606543        -1.749612        -0.757812
 C        -1.319557        -0.369362        -1.038833
 C        -1.848841         0.347875        -2.289519
 C        -0.373903         0.025143        -2.259839
 C         0.574430         0.972515        -1.624045
 C         0.269077         1.071205        -0.031890
 O        -0.973331         0.305709         0.141576
 C         1.285947         0.490797         0.877780
 O         2.471190         0.434955         0.555475
 H        -0.611677        -2.217701        -0.311916
 H        -2.498840        -2.040481        -0.067260
 H        -1.891296        -2.378523        -1.592347
 H        -2.513854        -0.312675        -2.823605
 H        -2.191338         1.360484        -2.423151
 H         0.061576        -0.890474        -2.814129
 H         1.596732         0.476093        -1.640628
 H         0.470486         1.966652        -1.989350
 H         0.069395         2.080792         0.319534
 H         0.771824         0.138706         1.876516
