19
Iteration:  2630
 C        -1.508065        -1.860111        -0.846668
 C        -1.406693        -0.384234        -0.957028
 C        -2.188633         0.552381        -1.768634
 C        -0.641545         0.301499        -2.086548
 C         0.477858         1.102788        -1.604997
 C         0.398992         0.875713        -0.011179
 O        -0.949545         0.324720         0.179107
 C         1.624956         0.064617         0.495411
 O         2.645461         0.519431         0.207627
 H        -2.395161        -2.141957        -0.241397
 H        -1.489201        -2.398513        -1.791075
 H        -0.766331        -2.195546        -0.227557
 H        -2.980452         0.006720        -2.354891
 H        -2.434191         1.467139        -1.186853
 H        -0.583600        -0.288486        -3.025434
 H         1.343356         0.464846        -1.897668
 H         0.490058         2.222383        -1.742324
 H         0.214108         1.784023         0.609683
 H         1.386718        -0.760941         1.211702
