19
Iteration:  3311
 C        -1.618966        -1.928603        -0.849631
 C        -1.280907        -0.374394        -1.017093
 C        -2.165453         0.516773        -1.907457
 C        -0.639566         0.248155        -2.180381
 C         0.418740         1.189128        -1.600591
 C         0.391923         0.950286        -0.040234
 O        -0.860036         0.197066         0.185330
 C         1.512955         0.344388         0.646267
 O         2.705989         0.385020         0.353255
 H        -1.292119        -2.698864        -1.525426
 H        -1.134307        -2.282952         0.137710
 H        -2.735038        -2.083625        -0.750793
 H        -2.960981         0.055032        -2.517631
 H        -2.390992         1.449111        -1.342086
 H        -0.290782        -0.256128        -3.099239
 H         1.338433         0.763622        -2.077174
 H         0.289975         2.221831        -1.854586
 H         0.024965         1.977525         0.526220
 H         1.200702        -0.318398         1.466307
