19
Iteration:   931charge 0 multiplicity 1
 C        -1.538832        -1.914737        -0.892539
 C        -1.284283        -0.422044        -0.909066
 C        -1.940009         0.605217        -1.725656
 C        -0.525367         0.146568        -2.030318
 C         0.438277         1.195926        -1.595642
 C         0.234433         1.089739        -0.029873
 O        -0.928026         0.210168         0.336798
 C         1.384324         0.301017         0.481089
 O         2.576560         0.287094         0.003886
 H        -2.335576        -2.252283        -0.164290
 H        -1.597217        -2.382623        -1.867418
 H        -0.705319        -2.361863        -0.426380
 H        -2.733133         0.427053        -2.402852
 H        -1.830295         1.562096        -1.321735
 H        -0.345154        -0.448507        -2.955244
 H         1.423496         0.857198        -1.638854
 H         0.335746         2.310063        -2.044849
 H         0.054489         2.055945         0.630349
 H         1.131266        -0.260237         1.351283
