19
Iteration:  4611
 C        -2.188505        -1.757499        -1.054813
 C        -1.468052        -0.459378        -1.078358
 C        -1.929190         0.766168        -1.825946
 C        -0.605326        -0.013711        -2.209783
 C         0.681211         0.600291        -1.770500
 C         0.346579         0.649675        -0.174237
 O        -0.654209        -0.238012         0.103907
 C         1.620485         0.619659         0.835161
 O         2.664541         1.235260         0.770547
 H        -2.576530        -2.149752        -0.051895
 H        -3.237852        -1.779240        -1.580608
 H        -1.546360        -2.560843        -1.386961
 H        -2.867699         0.886054        -2.413629
 H        -1.658818         1.651891        -1.191026
 H        -0.621786        -0.511172        -3.249605
 H         1.538825         0.002386        -2.098606
 H         0.695043         1.636586        -2.077183
 H         0.153687         1.700274        -0.094033
 H         1.486842        -0.198058         1.700084
