19
Iteration:   777charge 0 multiplicity 1
 C        -1.421214        -1.836912        -0.697187
 C        -1.267309        -0.406706        -1.020589
 C        -2.175845         0.436094        -1.935779
 C        -0.595708         0.297696        -2.083039
 C         0.439623         1.331021        -1.411945
 C         0.270620         0.918962         0.059042
 O        -1.024573         0.429710         0.195083
 C         1.564650         0.044584         0.601344
 O         2.657731         0.234036        -0.070166
 H        -2.312751        -1.991049        -0.077700
 H        -1.515781        -2.452980        -1.619141
 H        -0.566455        -2.148637        -0.171308
 H        -2.829860        -0.146099        -2.594609
 H        -2.551079         1.376432        -1.470823
 H        -0.246150        -0.278146        -2.933446
 H         1.425252         1.244159        -1.797106
 H        -0.143935         2.396910        -1.647214
 H         0.232168         1.844247         0.747361
 H         1.599580        -0.395504         1.600650
