19
Iteration:  2013
 C        -1.564243        -1.874120        -0.737742
 C        -1.335215        -0.369825        -1.023453
 C        -2.172594         0.439093        -2.001621
 C        -0.624069         0.298312        -2.075749
 C         0.272270         1.330683        -1.492517
 C         0.371943         0.963100        -0.013995
 O        -0.898123         0.244047         0.226746
 C         1.554487         0.241540         0.583362
 O         2.775441         0.243437         0.151473
 H        -1.902628        -2.005114         0.377191
 H        -2.191774        -2.466651        -1.454645
 H        -0.668225        -2.393417        -0.896475
 H        -2.794746        -0.105683        -2.730944
 H        -2.618414         1.371825        -1.673121
 H        -0.095021        -0.205637        -2.985334
 H         1.321646         1.206762        -1.822205
 H        -0.015257         2.474978        -1.651720
 H         0.479303         1.804614         0.568690
 H         1.421126        -0.342465         1.544271
