19
Iteration:   137charge 0 multiplicity 1
 C        -1.652032        -1.918370        -0.828811
 C        -1.341821        -0.392729        -0.919836
 C        -2.104698         0.658127        -1.708386
 C        -0.667161         0.316859        -2.153736
 C         0.509933         1.139039        -1.629965
 C         0.272597         1.016420        -0.116680
 O        -0.670195        -0.000736         0.278128
 C         1.472639         0.369215         0.579459
 O         2.574861         0.329592         0.136514
 H        -2.503907        -2.229523        -0.078090
 H        -1.975987        -2.379323        -1.866289
 H        -0.595355        -2.295727        -0.520010
 H        -2.829029         0.475389        -2.536649
 H        -2.223216         1.703637        -1.310042
 H        -0.542632        -0.276812        -3.054468
 H         1.522020         0.719627        -1.859781
 H         0.582705         2.292251        -1.954810
 H         0.084604         1.978275         0.432064
 H         1.139054        -0.034616         1.639122
