19
Iteration:  3239charge 0 multiplicity 1
 C        -1.579893        -1.874268        -0.739437
 C        -1.302469        -0.450751        -1.056362
 C        -2.046057         0.481801        -2.017619
 C        -0.593707         0.294838        -2.067051
 C         0.435325         1.279858        -1.475666
 C         0.330633         0.953423        -0.018107
 O        -0.961852         0.266608         0.239787
 C         1.569251         0.247354         0.598023
 O         2.635445         0.331013         0.139480
 H        -0.596171        -2.487092        -0.729215
 H        -2.080643        -2.039341         0.318732
 H        -2.256931        -2.381240        -1.375505
 H        -2.603097        -0.151188        -2.748401
 H        -2.566276         1.381066        -1.647215
 H        -0.313040        -0.307279        -2.998337
 H         1.451145         1.144335        -1.918279
 H        -0.052687         2.306791        -1.559494
 H         0.203660         1.756793         0.687212
 H         1.283860        -0.481680         1.402397
