19
Iteration:  2227charge 0 multiplicity 1
 C        -1.460934        -1.802839        -0.774091
 C        -1.360882        -0.335175        -0.956400
 C        -2.139012         0.469406        -1.972946
 C        -0.667049         0.248022        -2.091457
 C         0.353176         1.223111        -1.483231
 C         0.313054         0.905186        -0.000857
 O        -0.979210         0.382006         0.330343
 C         1.586940        -0.061213         0.371553
 O         2.694464         0.448326         0.190706
 H        -2.016215        -1.978091         0.037174
 H        -1.733243        -2.314015        -1.663473
 H        -0.342240        -2.070074        -0.565433
 H        -2.666658        -0.096812        -2.715010
 H        -2.683202         1.314079        -1.595804
 H        -0.180885        -0.423854        -2.873642
 H         1.429087         1.004911        -1.893378
 H         0.316502         2.352346        -1.660859
 H         0.568869         1.625221         0.699365
 H         1.354203        -0.961360         0.975914
