19
Iteration:  1512
 C        -1.615700        -1.823119        -0.709726
 C        -1.326769        -0.413688        -1.041143
 C        -2.136451         0.461576        -1.955308
 C        -0.619115         0.285517        -2.106023
 C         0.218168         1.349258        -1.509526
 C         0.352501         0.913627        -0.047333
 O        -0.861192         0.206466         0.208250
 C         1.655512         0.259403         0.570485
 O         2.762053         0.255448         0.206961
 H        -2.094771        -2.026386         0.189626
 H        -2.230141        -2.331790        -1.496419
 H        -0.646117        -2.330097        -0.650504
 H        -2.650889        -0.285175        -2.634342
 H        -2.681057         1.400653        -1.710445
 H        -0.153595        -0.201974        -3.007711
 H         1.217672         1.397553        -2.023998
 H        -0.230694         2.395176        -1.557000
 H         0.337500         1.908070         0.507975
 H         1.389723        -0.226160         1.510560
