19
Iteration:  1599charge 0 multiplicity 1
 C         2.406960        -1.724784        -3.834158
 C         2.554866        -0.342461        -3.131267
 C         1.970557         0.850520        -3.866589
 C         1.207303         0.207626        -2.801910
 O         1.213398         1.015531        -1.674867
 C         2.464002         0.789469        -1.023098
 C         3.443494        -0.040919        -1.945923
 C         2.094133         0.059041         0.227917
 O         2.444758         0.544264         1.342549
 H         3.209710        -2.017320        -4.491402
 H         2.268848        -2.588086        -3.170442
 H         1.485856        -1.657827        -4.564494
 H         2.377317         1.844754        -3.830202
 H         1.618232         0.679117        -4.930363
 H         0.352813        -0.448671        -2.742154
 H         2.799642         1.852973        -0.699428
 H         4.434592         0.390200        -2.028660
 H         3.503559        -0.994331        -1.398793
 H         1.349862        -0.847238         0.335624
