19
Iteration:  1472
 C         2.462863        -1.710797        -3.910408
 C         2.480868        -0.354816        -3.168204
 C         1.989081         0.750432        -4.090458
 C         1.151049         0.286231        -2.916896
 O         1.204520         0.976313        -1.692382
 C         2.495760         0.853721        -0.961145
 C         3.412909        -0.054399        -1.936008
 C         1.995800         0.312125         0.479092
 O         2.554992         0.358045         1.527353
 H         3.320950        -1.904036        -4.529657
 H         2.399642        -2.579312        -3.184827
 H         1.599972        -1.859161        -4.569151
 H         2.542360         1.759175        -3.945109
 H         1.505950         0.335368        -4.993287
 H         0.225338        -0.245210        -3.151044
 H         2.832381         1.852907        -0.848532
 H         4.360532         0.523035        -2.171917
 H         3.725096        -1.105823        -1.488642
 H         1.102324        -0.369141         0.243575
