19
Iteration:  3959
 C         2.603384        -1.769270        -3.683501
 C         2.515022        -0.293432        -3.178234
 C         2.086902         0.914329        -3.905402
 C         1.093240         0.372312        -3.005902
 O         1.021797         1.054112        -1.789512
 C         2.356481         0.730971        -0.987408
 C         3.152011        -0.307175        -1.767547
 C         1.960365         0.350528         0.365264
 O         2.911514         0.313030         1.230122
 H         3.718321        -1.907461        -3.830691
 H         2.202392        -2.483650        -2.933080
 H         2.038159        -1.915383        -4.626048
 H         2.357023         1.987609        -3.619843
 H         1.880422         1.078121        -4.969381
 H         0.156005        -0.092670        -3.158980
 H         3.014758         1.580136        -0.833319
 H         4.215447        -0.009682        -1.713968
 H         3.028174        -1.305565        -1.241389
 H         0.877622        -0.040283         0.481004
