19
Iteration:  4844charge 0 multiplicity 1
 C         2.488210        -1.758723        -3.842900
 C         2.400540        -0.433683        -3.078962
 C         2.213138         0.903986        -3.977249
 C         1.154858         0.491922        -2.986606
 O         1.085061         0.911263        -1.637426
 C         2.501213         0.850269        -1.145170
 C         3.168357        -0.279155        -1.814699
 C         2.142571         0.246702         0.398841
 O         2.595300         0.498016         1.439877
 H         3.464985        -1.963176        -4.419206
 H         2.281315        -2.555525        -3.108857
 H         1.659979        -1.775819        -4.652209
 H         2.947839         1.650166        -4.008172
 H         1.984616         0.497457        -4.949887
 H         0.055018         0.405583        -3.286220
 H         3.002292         1.773009        -1.126375
 H         4.214506        -0.280275        -1.986204
 H         2.968587        -1.301162        -1.395311
 H         1.331906        -0.502680         0.127490
