19
Iteration:  3840
 C         2.592890        -1.778092        -3.798659
 C         2.414073        -0.317576        -3.197863
 C         2.134183         0.886860        -4.005958
 C         1.089276         0.419922        -2.933285
 O         1.146247         0.966859        -1.635385
 C         2.348077         0.780645        -0.989355
 C         3.141232        -0.231470        -1.826480
 C         2.150631         0.166435         0.318863
 O         2.672985         0.508628         1.392280
 H         3.636130        -2.114598        -3.904430
 H         2.074558        -2.607349        -3.250536
 H         2.109887        -1.930970        -4.773954
 H         2.766640         1.713911        -3.951179
 H         1.965368         0.847775        -5.157797
 H         0.082219         0.243018        -3.183775
 H         2.740438         1.821056        -0.861971
 H         4.199073        -0.000087        -1.917853
 H         3.119647        -1.291233        -1.422972
 H         1.378344        -0.657740         0.175707
