19
Iteration:  1631charge 0 multiplicity 1
 C         2.645689        -1.729866        -3.827572
 C         2.306289        -0.453063        -3.119810
 C         2.022520         0.786608        -3.957270
 C         1.022312         0.382324        -2.856865
 O         1.224826         1.055597        -1.653823
 C         2.488807         0.809071        -1.052119
 C         3.307780        -0.114525        -1.976939
 C         2.149563         0.124779         0.318161
 O         2.492934         0.483309         1.444468
 H         3.496164        -1.469551        -4.437173
 H         2.871273        -2.528340        -3.174262
 H         1.826964        -2.050215        -4.541706
 H         2.669512         1.656848        -3.819356
 H         1.749622         0.646187        -5.061317
 H         0.051624        -0.077766        -3.022596
 H         2.903730         1.830420        -0.756011
 H         4.311886         0.214056        -2.276954
 H         3.509744        -1.068426        -1.483073
 H         1.427414        -0.689515         0.260742
