19
Iteration:  2810
 C         2.574896        -1.675038        -4.027929
 C         2.481381        -0.326563        -3.239916
 C         2.116474         0.959498        -3.963526
 C         1.150267         0.457412        -2.960661
 O         1.074286         0.739998        -1.622699
 C         2.417405         0.566749        -0.993153
 C         3.125105        -0.447205        -1.855022
 C         2.091571         0.320360         0.482846
 O         2.689858         0.784322         1.490416
 H         3.536252        -1.951072        -4.372254
 H         2.367892        -2.470568        -3.245803
 H         1.974953        -1.690138        -4.965048
 H         2.605698         1.964735        -3.676150
 H         1.945169         0.804203        -4.991670
 H         0.166320         0.207546        -3.296448
 H         2.876610         1.527537        -1.042032
 H         4.149285        -0.409559        -2.000474
 H         2.918854        -1.485590        -1.616865
 H         1.372146        -0.396304         0.683900
