19
Iteration:  4608charge 0 multiplicity 1
 C         2.637015        -1.636990        -3.939099
 C         2.407143        -0.467954        -3.067279
 C         2.271136         0.836571        -3.882400
 C         1.060747         0.363064        -3.122471
 O         1.006732         1.030833        -1.744097
 C         2.289954         0.701399        -0.977525
 C         3.031644        -0.422151        -1.661349
 C         2.012661         0.491860         0.424417
 O         2.942857         0.431568         1.292107
 H         3.620288        -1.708310        -4.426047
 H         2.283745        -2.632891        -3.466585
 H         1.895880        -1.462973        -4.760649
 H         2.745823         1.659763        -3.262442
 H         2.331531         0.827587        -4.957619
 H         0.078054        -0.005280        -3.414166
 H         2.897139         1.659181        -1.071054
 H         4.141719        -0.272759        -1.629609
 H         2.945829        -1.455426        -1.228956
 H         0.970424         0.348629         0.817057
