19
Iteration:  4079
 C         2.598517        -1.681597        -4.008658
 C         2.457500        -0.422049        -3.185828
 C         2.295512         0.908739        -3.864600
 C         1.126978         0.373393        -3.007595
 O         0.954298         0.772166        -1.615921
 C         2.315569         0.819020        -1.020398
 C         2.993771        -0.423010        -1.757206
 C         2.059781         0.530432         0.485771
 O         2.921674         0.444977         1.306424
 H         3.537037        -1.534845        -4.616627
 H         2.602302        -2.609023        -3.419051
 H         1.919447        -1.589409        -4.859745
 H         2.856033         1.861378        -3.561451
 H         2.363677         0.888509        -4.952351
 H         0.097709         0.079797        -3.420599
 H         2.583328         1.877960        -1.149772
 H         4.079811        -0.442929        -1.621588
 H         2.449449        -1.243962        -1.267710
 H         0.953748         0.713629         0.789527
