19
Iteration:   500charge 0 multiplicity 1
 C         2.692540        -1.693504        -3.927851
 C         2.449896        -0.443209        -3.112663
 C         2.287204         0.941441        -3.800158
 C         1.161820         0.348900        -2.959964
 O         0.980183         0.851851        -1.700397
 C         2.238709         0.789268        -1.028772
 C         3.036771        -0.404494        -1.683375
 C         2.018433         0.801440         0.437292
 O         2.787150         0.186639         1.133324
 H         2.350552        -2.616815        -3.418016
 H         2.177981        -1.647944        -4.937596
 H         3.843586        -1.785541        -3.980439
 H         3.064944         1.640484        -3.458811
 H         1.991342         0.863068        -4.896536
 H         0.338746         0.033701        -3.505039
 H         2.879573         1.665556        -1.321888
 H         4.094301        -0.275335        -1.588101
 H         2.837434        -1.315430        -1.075622
 H         1.138804         1.475910         0.818772
