19
Iteration:   438charge 0 multiplicity 1
 C         2.695850        -1.763633        -3.785366
 C         2.444455        -0.385872        -3.152391
 C         2.419909         0.924872        -3.898805
 C         1.156846         0.438210        -3.140039
 O         0.893063         0.956378        -1.658379
 C         2.079857         0.797900        -1.014153
 C         2.918794        -0.276854        -1.632499
 C         1.972419         0.514512         0.472463
 O         3.025994         0.211098         1.080922
 H         2.544263        -2.387776        -2.921277
 H         2.228992        -2.069912        -4.654666
 H         3.808946        -2.082796        -3.870382
 H         3.164636         1.744255        -3.729246
 H         2.404589         0.542365        -4.933934
 H         0.213033         0.135251        -3.469905
 H         2.715812         1.681885        -1.057220
 H         3.983363        -0.093878        -1.463666
 H         2.631028        -1.276773        -1.262849
 H         0.964571         0.878490         1.061957
