19
Iteration:  3464
 C         2.698509        -1.737745        -3.677893
 C         2.494796        -0.287025        -3.149674
 C         2.042347         0.830354        -4.025517
 C         1.081888         0.214403        -2.877323
 O         1.042048         0.990359        -1.723872
 C         2.283500         0.820992        -1.057528
 C         3.278935         0.038889        -1.916867
 C         2.027390         0.418704         0.365750
 O         2.776329         0.093575         1.345212
 H         3.707167        -2.159085        -4.061715
 H         2.175631        -2.256435        -2.844588
 H         1.972552        -1.896303        -4.532453
 H         2.347035         1.890879        -3.851422
 H         1.784087         0.625860        -4.998416
 H         0.172942        -0.325927        -3.147589
 H         2.796515         1.793712        -0.808370
 H         4.282576         0.463744        -2.147321
 H         3.539271        -0.875731        -1.367561
 H         0.867147         0.547384         0.546008
