19
Iteration:  3051charge 0 multiplicity 1
 C         2.600719        -1.701701        -3.884321
 C         2.532778        -0.417320        -2.999259
 C         2.193277         0.761797        -3.856418
 C         1.104353         0.215713        -2.922220
 O         0.860865         0.937690        -1.654731
 C         2.263035         0.981934        -1.043467
 C         3.310475         0.017762        -1.818174
 C         2.050704         0.482976         0.395469
 O         2.829765         0.108450         1.160787
 H         3.364117        -1.660269        -4.668908
 H         2.541342        -2.721584        -3.354544
 H         1.615331        -1.917609        -4.359800
 H         2.636989         1.765297        -3.513182
 H         2.167699         0.756767        -4.924404
 H         0.217628        -0.291304        -3.260898
 H         2.641081         2.035210        -1.015476
 H         4.261789         0.420442        -2.059347
 H         3.626816        -0.950601        -1.296763
 H         0.836641         0.464158         0.559594
