19
Iteration:  4948
 C         2.516389        -1.834052        -3.938693
 C         2.362176        -0.420798        -3.163664
 C         2.256856         1.041030        -3.857502
 C         1.161687         0.359206        -3.043440
 O         1.073690         0.912056        -1.678367
 C         2.398118         0.744082        -1.083242
 C         3.059665        -0.368087        -1.730571
 C         2.021718         0.449133         0.405059
 O         2.819672         0.490025         1.386340
 H         3.530331        -1.873312        -4.193013
 H         2.320773        -2.660103        -3.241761
 H         1.870590        -1.849395        -4.759299
 H         2.991376         1.794056        -3.497048
 H         2.070631         1.075929        -4.947878
 H         0.210276         0.067210        -3.340443
 H         2.899612         1.701091        -1.003989
 H         4.166825        -0.135293        -1.920587
 H         2.977012        -1.360867        -1.364941
 H         0.975336        -0.092135         0.550279
