19
Iteration:  2680charge 0 multiplicity 1
 C         2.580030        -1.738297        -3.869666
 C         2.367983        -0.439601        -3.173360
 C         2.081385         0.847845        -3.988864
 C         1.138822         0.402359        -2.906137
 O         1.167481         0.979552        -1.628220
 C         2.457258         0.717671        -1.001056
 C         3.270117        -0.183942        -1.890855
 C         1.960312         0.257148         0.383545
 O         2.671143         0.486666         1.402644
 H         3.420284        -1.651975        -4.459087
 H         2.670215        -2.571423        -3.198648
 H         1.709087        -2.086212        -4.418623
 H         2.630402         1.803132        -3.948678
 H         1.885684         0.596371        -5.094940
 H         0.145459         0.028876        -3.173606
 H         2.881263         1.703876        -0.893176
 H         4.176805         0.329940        -2.007809
 H         3.513848        -1.183352        -1.592947
 H         0.903690        -0.041130         0.423242
