19
Iteration:    87charge 0 multiplicity 1
 C         2.596993        -1.625513        -3.965517
 C         2.498698        -0.387780        -3.141570
 C         2.353577         0.890127        -3.827623
 C         1.210455         0.319602        -2.987824
 O         0.925342         0.731367        -1.702736
 C         2.144460         0.758067        -1.047534
 C         3.013535        -0.293767        -1.742025
 C         2.008134         0.490670         0.481588
 O         2.930987         0.498416         1.268618
 H         2.166277        -2.619875        -3.504472
 H         2.123391        -1.368086        -4.823598
 H         3.595038        -1.944205        -4.215590
 H         3.057460         1.611781        -3.495626
 H         2.235696         1.009033        -4.900457
 H         0.335081        -0.082961        -3.464489
 H         2.739261         1.747217        -1.112423
 H         4.027469        -0.104038        -1.576077
 H         2.666342        -1.185590        -1.305321
 H         1.067826         0.183342         0.771478
