19
Iteration:   273charge 0 multiplicity 1
 C         2.263593        -1.681451        -4.191259
 C         2.473825        -0.478886        -3.217561
 C         2.206439         0.937735        -3.816004
 C         1.252706         0.317395        -2.903997
 O         1.282827         0.814025        -1.543870
 C         2.572749         0.612035        -1.002441
 C         3.320210        -0.408862        -1.889835
 C         2.253380         0.227530         0.480451
 O         2.158793         0.950588         1.394827
 H         1.973734        -2.556072        -3.652428
 H         1.531035        -1.299848        -4.849233
 H         3.112399        -2.044846        -4.761898
 H         2.761006         1.822744        -3.370210
 H         2.071756         1.094053        -4.893357
 H         0.149027         0.081675        -3.075079
 H         3.140579         1.524864        -0.902941
 H         4.310824         0.011932        -2.082508
 H         3.418801        -1.458759        -1.381002
 H         1.966305        -0.960276         0.512692
