19
Iteration:   607
 C         2.649784        -1.737460        -3.906610
 C         2.447420        -0.424689        -3.093492
 C         2.229551         0.861002        -3.909622
 C         1.148021         0.433261        -3.064188
 O         0.993366         1.011508        -1.790297
 C         2.309440         0.848073        -0.995448
 C         3.059408        -0.347539        -1.647096
 C         1.995715         0.425910         0.401658
 O         2.837233         0.300327         1.334131
 H         2.503208        -2.640040        -3.206511
 H         1.955262        -1.880909        -4.854517
 H         3.566824        -1.801582        -4.390593
 H         2.936139         1.677723        -3.589243
 H         2.266294         0.759297        -5.002366
 H         0.237206         0.204096        -3.504765
 H         2.939857         1.763054        -1.085902
 H         4.148843        -0.043223        -1.571335
 H         2.812174        -1.278468        -0.983096
 H         0.895733         0.290618         0.724604
