19
Iteration:  3691
 C         2.556002        -1.525190        -4.158581
 C         2.400902        -0.431374        -3.061845
 C         2.284764         0.955779        -3.734621
 C         1.167241         0.321918        -2.925313
 O         0.997734         0.788322        -1.670268
 C         2.222803         0.601591        -1.074618
 C         3.080448        -0.505218        -1.688620
 C         2.090655         0.258610         0.406964
 O         2.840691         0.873601         1.279339
 H         3.579268        -1.500946        -4.521491
 H         2.428307        -2.481941        -3.666657
 H         2.032884        -1.553588        -5.166786
 H         2.723536         1.749779        -3.219714
 H         2.286850         0.877900        -4.913324
 H         0.324860        -0.096584        -3.389606
 H         2.906873         1.417208        -1.145310
 H         4.142993        -0.328236        -1.667210
 H         2.757707        -1.425677        -1.201916
 H         1.389275        -0.607205         0.652931
