19
Iteration:  4898
 C         2.355364        -1.743760        -3.874113
 C         2.463697        -0.390407        -3.120094
 C         2.271525         0.878933        -3.980758
 C         1.193369         0.423880        -3.005008
 O         1.095157         0.941088        -1.717573
 C         2.262273         0.730051        -0.954568
 C         3.252569        -0.290455        -1.743491
 C         2.061520         0.168923         0.405627
 O         2.748300         0.603245         1.303369
 H         3.442406        -2.135038        -3.755538
 H         1.736639        -2.376909        -3.241956
 H         1.987937        -1.563231        -4.966458
 H         2.761381         1.672289        -3.534137
 H         2.150628         0.916691        -5.059176
 H         0.066471         0.201074        -3.210023
 H         2.791040         1.740209        -0.812365
 H         4.128322         0.287282        -1.956379
 H         3.482620        -1.361299        -1.468176
 H         1.260032        -0.667925         0.560847
