19
Iteration:  3655charge 0 multiplicity 1
 C         2.685231        -1.626236        -4.122785
 C         2.394410        -0.389870        -3.274566
 C         2.260171         1.058051        -3.825915
 C         1.147249         0.366120        -2.986130
 O         0.988383         0.627227        -1.646033
 C         2.280282         0.599354        -1.029152
 C         2.981741        -0.505430        -1.814358
 C         2.090819         0.451626         0.520790
 O         2.902116         0.790281         1.432721
 H         3.700384        -1.924213        -4.029651
 H         2.165999        -2.367488        -3.452630
 H         2.208505        -1.726453        -5.087167
 H         2.776358         1.990609        -3.372238
 H         2.056404         1.259087        -4.851340
 H         0.193245        -0.146157        -3.236583
 H         2.642435         1.629495        -1.253420
 H         4.025974        -0.724357        -1.620837
 H         2.478683        -1.428755        -1.482879
 H         1.056006         0.061927         0.849264
