19
Iteration:  3358
 C         2.677796        -1.845704        -3.588930
 C         2.544485        -0.320172        -3.112397
 C         2.044298         0.742177        -3.992865
 C         1.079178         0.308243        -2.905628
 O         0.915508         1.016378        -1.718374
 C         2.263935         1.032291        -1.067663
 C         3.334859         0.126969        -1.801286
 C         2.049053         0.483006         0.438177
 O         2.793245        -0.165357         1.065198
 H         3.721310        -1.817627        -3.786387
 H         2.594482        -2.735423        -2.929952
 H         2.071924        -1.889513        -4.423884
 H         2.549319         1.763499        -4.067148
 H         1.688438         0.496285        -4.942221
 H         0.132387        -0.106023        -3.276978
 H         2.691477         2.051160        -0.940438
 H         4.251481         0.689779        -2.096250
 H         3.566751        -0.658045        -1.010968
 H         1.089869         0.991400         0.942689
