19
Iteration:  2812charge 0 multiplicity 1
 C         2.583941        -1.672154        -4.045757
 C         2.476626        -0.315132        -3.233165
 C         2.110657         0.946272        -3.936630
 C         1.150161         0.463936        -2.977699
 O         1.090137         0.742751        -1.620561
 C         2.403007         0.576913        -1.000784
 C         3.121307        -0.452337        -1.824188
 C         2.079669         0.301588         0.478523
 O         2.705233         0.793300         1.481209
 H         3.598895        -1.908191        -4.428076
 H         2.313144        -2.485588        -3.290045
 H         1.906114        -1.698822        -4.934270
 H         2.654430         1.933789        -3.696066
 H         1.933396         0.769710        -5.004806
 H         0.137240         0.153391        -3.290975
 H         2.858158         1.561266        -1.114326
 H         4.173092        -0.421301        -1.976199
 H         2.935473        -1.473780        -1.567843
 H         1.285675        -0.442878         0.681510
