19
Iteration:  2772charge 0 multiplicity 1
 C         2.457005        -1.768012        -3.980004
 C         2.434963        -0.449666        -3.201638
 C         2.172864         0.948850        -3.810365
 C         1.148205         0.389817        -2.940813
 O         1.096342         0.769903        -1.622827
 C         2.431530         0.722674        -0.992150
 C         3.252510        -0.266413        -1.967639
 C         2.141370         0.232661         0.373024
 O         2.585887         0.738988         1.427842
 H         3.532123        -2.113812        -4.027879
 H         1.772568        -2.479066        -3.638077
 H         1.998178        -1.652570        -4.951443
 H         2.582708         1.831013        -3.435248
 H         2.038338         1.000774        -4.914066
 H         0.087917         0.266639        -3.276461
 H         2.984860         1.704629        -0.905212
 H         4.296993         0.192771        -1.901271
 H         3.316791        -1.146499        -1.288937
 H         1.633618        -0.718349         0.360888
