19
Iteration:  2501
 C         2.755596        -1.724423        -3.895085
 C         2.387116        -0.462744        -3.094253
 C         2.171609         0.901297        -3.881195
 C         1.060981         0.310521        -2.962694
 O         0.993516         0.920820        -1.723794
 C         2.299488         0.812336        -1.044553
 C         3.076276        -0.295265        -1.816177
 C         2.065938         0.693535         0.511290
 O         2.831895         0.207481         1.247864
 H         3.716348        -1.710325        -4.285979
 H         2.928178        -2.632839        -3.219854
 H         2.020548        -2.015752        -4.707767
 H         2.722567         1.775715        -3.417182
 H         2.025154         0.748188        -4.959711
 H         0.057282        -0.024612        -3.245930
 H         2.822704         1.729694        -1.316595
 H         4.162891        -0.015349        -1.921913
 H         2.930953        -1.226662        -1.316441
 H         1.223427         1.230238         0.858477
