19
Iteration:  4530
 C         2.456522        -1.717156        -3.898971
 C         2.514590        -0.420582        -3.069053
 C         2.310575         1.028590        -3.758741
 C         1.207880         0.351384        -3.031073
 O         0.935218         0.796278        -1.708243
 C         2.252411         0.716688        -1.041418
 C         3.103361        -0.415131        -1.690983
 C         1.956781         0.564671         0.360419
 O         2.966645         0.442398         1.149401
 H         3.432908        -2.150753        -4.037423
 H         1.763324        -2.514452        -3.464756
 H         2.003147        -1.385176        -4.895704
 H         2.847451         1.725877        -3.152915
 H         2.636949         1.192688        -4.751620
 H         0.257326         0.047892        -3.400094
 H         2.617830         1.757165        -1.233281
 H         4.149565        -0.209286        -1.589785
 H         2.870390        -1.398381        -1.200296
 H         0.994980         0.551575         0.879329
