19
Iteration:  3128
 C         2.789155        -1.742624        -3.561751
 C         2.363211        -0.392313        -3.139576
 C         1.983711         0.806946        -4.029006
 C         1.073412         0.302463        -2.908601
 O         1.039091         0.999089        -1.649131
 C         2.362643         1.003714        -1.040338
 C         3.193954         0.054474        -1.874343
 C         2.001266         0.452910         0.438926
 O         2.836043        -0.072516         1.060479
 H         3.807567        -1.839303        -3.281385
 H         2.469238        -2.658863        -3.033425
 H         2.722229        -1.897030        -4.640115
 H         2.532818         1.736706        -3.762822
 H         1.861907         0.618358        -5.075764
 H         0.079413        -0.087720        -3.062763
 H         2.735969         2.009458        -0.919141
 H         4.059988         0.442006        -2.225303
 H         3.199828        -0.797042        -1.224094
 H         0.943490         0.551093         0.671160
