19
Iteration:  2890charge 0 multiplicity 1
 C         2.632894        -1.601583        -4.004074
 C         2.509637        -0.319468        -3.243163
 C         2.359698         0.998136        -3.831040
 C         1.142380         0.380932        -3.002251
 O         0.897335         0.637111        -1.606407
 C         2.209346         0.630270        -0.966583
 C         2.944345        -0.467679        -1.829408
 C         2.028713         0.416470         0.493959
 O         2.991084         0.696485         1.255804
 H         3.725229        -1.735517        -4.193147
 H         2.308790        -2.390910        -3.327122
 H         1.966069        -1.752218        -4.832983
 H         2.985998         1.777521        -3.446815
 H         2.162290         1.013642        -4.968008
 H         0.078447         0.174255        -3.390386
 H         2.560282         1.669154        -0.879972
 H         4.020606        -0.372062        -1.584994
 H         2.593153        -1.415012        -1.544786
 H         1.089768        -0.007726         1.027896
