19
Iteration:  1219charge 0 multiplicity 1
 C         2.571830        -1.655941        -3.976243
 C         2.424293        -0.345946        -3.171131
 C         2.321042         0.996914        -3.809871
 C         1.210410         0.399347        -3.027410
 O         0.901307         0.760017        -1.612612
 C         2.217666         0.704206        -1.048998
 C         2.991492        -0.492029        -1.729827
 C         2.183349         0.268704         0.373300
 O         2.897317         0.740454         1.311465
 H         3.540527        -1.768070        -4.380857
 H         2.285204        -2.514087        -3.287825
 H         1.809832        -1.709057        -4.858960
 H         2.947034         1.840726        -3.423316
 H         2.221098         0.974533        -4.866019
 H         0.218320        -0.054465        -3.488037
 H         2.802700         1.693944        -1.198745
 H         4.058925        -0.466711        -1.652321
 H         2.564149        -1.318916        -1.297768
 H         1.359180        -0.437367         0.619309
