19
Iteration:  1238
 C         2.659675        -1.680637        -4.078947
 C         2.449013        -0.437928        -3.246851
 C         2.277323         0.928723        -3.806409
 C         1.080818         0.426462        -2.981018
 O         1.002134         0.735093        -1.625901
 C         2.317353         0.718293        -1.042092
 C         2.902758        -0.475224        -1.763437
 C         2.096987         0.462481         0.461479
 O         2.900164         0.686021         1.419360
 H         3.526056        -1.493577        -4.696314
 H         2.705478        -2.519063        -3.407407
 H         1.872931        -1.763536        -4.907749
 H         2.844129         1.749430        -3.482535
 H         1.936138         0.918103        -4.893669
 H         0.089993         0.468143        -3.550285
 H         3.019795         1.579792        -1.200781
 H         4.011385        -0.599685        -1.723085
 H         2.567110        -1.457872        -1.299158
 H         1.210706        -0.178892         0.624217
