19
Iteration:  2423charge 0 multiplicity 1
 C         2.579349        -1.629807        -3.979195
 C         2.518646        -0.405608        -2.994298
 C         2.218573         0.883792        -3.774024
 C         1.142205         0.130688        -2.979960
 O         0.956413         0.765190        -1.630850
 C         2.270665         0.934962        -1.105309
 C         3.194699        -0.294200        -1.670786
 C         2.096904         0.812843         0.406143
 O         2.756885         0.180800         1.123233
 H         3.574475        -1.918344        -4.228904
 H         1.878081        -2.528232        -3.668632
 H         2.022069        -1.462713        -4.962672
 H         2.437911         1.844204        -3.375003
 H         2.346361         0.717906        -4.911368
 H         0.188839        -0.250289        -3.466818
 H         2.689844         1.899032        -1.455442
 H         4.326228        -0.206306        -1.815224
 H         3.159123        -1.236277        -1.073192
 H         1.335403         1.540857         0.911625
