19
Iteration:   216
 C         2.432021        -1.700680        -4.034373
 C         2.337867        -0.412723        -3.231192
 C         2.276136         1.112401        -3.767315
 C         1.210923         0.399040        -2.875457
 O         1.137931         0.707862        -1.528163
 C         2.574338         0.603181        -1.059389
 C         3.227526        -0.528011        -1.913382
 C         2.300305         0.207203         0.427624
 O         2.256216         0.967786         1.297108
 H         1.996085        -2.471794        -3.572111
 H         1.904209        -1.723446        -4.960911
 H         3.509197        -1.862010        -4.272187
 H         2.969448         1.767368        -3.317217
 H         1.879175         1.133535        -4.774949
 H         0.305050         0.348755        -3.491120
 H         3.035090         1.552007        -1.020660
 H         4.323750        -0.566976        -2.041873
 H         2.993505        -1.530200        -1.324711
 H         2.080281        -0.865578         0.582941
