19
Iteration:   681
 C         2.513207        -1.739890        -3.857954
 C         2.450806        -0.409512        -3.154785
 C         2.465272         0.963646        -3.785891
 C         1.234521         0.378686        -3.055435
 O         0.898531         0.826508        -1.714132
 C         2.178032         0.849306        -1.029390
 C         3.002516        -0.276272        -1.661008
 C         2.009749         0.422369         0.370854
 O         2.930589         0.368941         1.190284
 H         1.639972        -2.152398        -3.344179
 H         2.273050        -1.946334        -4.903796
 H         3.537429        -2.279030        -3.766039
 H         3.250365         1.582034        -3.319390
 H         2.527848         1.046483        -4.846873
 H         0.305898         0.192442        -3.463239
 H         2.599364         1.890933        -1.219658
 H         4.091390        -0.062472        -1.685813
 H         2.790603        -1.057304        -1.053219
 H         1.093190         0.137257         0.721976
