19
Iteration:   865
 C         2.398478        -1.724942        -3.947949
 C         2.479760        -0.398006        -3.197775
 C         2.411634         0.986446        -3.724561
 C         1.219883         0.403605        -2.996306
 O         0.995965         0.829133        -1.684826
 C         2.242419         0.652597        -1.033092
 C         3.178686        -0.343778        -1.791271
 C         1.991204         0.354604         0.433867
 O         2.800484         0.581651         1.260575
 H         1.513903        -2.133760        -3.522826
 H         2.527836        -1.720379        -4.980748
 H         3.284342        -2.372419        -3.600293
 H         2.851936         1.933335        -3.406116
 H         2.402452         1.105621        -4.866530
 H         0.259425         0.183997        -3.581782
 H         2.775313         1.582199        -0.937662
 H         4.292203        -0.047473        -1.781738
 H         2.985624        -1.345434        -1.294012
 H         0.924840        -0.180129         0.505278
