19
Iteration:  4375
 C         2.353969        -1.797586        -3.795952
 C         2.390863        -0.393167        -3.183989
 C         2.332029         0.985861        -3.917660
 C         1.180559         0.439186        -2.968248
 O         1.088663         0.887375        -1.672057
 C         2.362944         0.686832        -1.012570
 C         3.210792        -0.236153        -1.915201
 C         2.047968         0.160956         0.381615
 O         2.715488         0.622284         1.373761
 H         3.464688        -2.089429        -3.869083
 H         1.775093        -2.433965        -3.087881
 H         1.857097        -2.064842        -4.770344
 H         2.845862         1.926610        -3.520859
 H         2.144405         1.057415        -4.975520
 H         0.294928         0.053361        -3.537157
 H         2.735914         1.701801        -0.801141
 H         4.173134         0.228355        -2.053676
 H         3.586881        -1.307140        -1.701029
 H         1.329295        -0.628027         0.696949
