19
Iteration:  3228charge 0 multiplicity 1
 C         2.842158        -1.787832        -3.468742
 C         2.375374        -0.383268        -3.127117
 C         2.036754         0.827669        -3.928252
 C         1.053810         0.276175        -2.949337
 O         1.010803         1.025228        -1.690308
 C         2.356336         1.030951        -1.082842
 C         3.171680         0.091565        -1.947619
 C         2.055601         0.521520         0.435445
 O         2.762732        -0.185564         1.045589
 H         3.483265        -1.983545        -4.310351
 H         3.091319        -2.288004        -2.486673
 H         2.011694        -2.378851        -3.836906
 H         2.395624         1.712296        -3.409565
 H         1.958743         0.736759        -5.031263
 H         0.035392        -0.069280        -3.251778
 H         2.890138         1.962111        -1.120845
 H         3.989001         0.656852        -2.254828
 H         3.648213        -0.751499        -1.480359
 H         1.039862         0.773495         0.968059
