19
Iteration:  2484
 C         2.801612        -1.711904        -3.854268
 C         2.294113        -0.428719        -3.180444
 C         2.140671         0.846298        -3.932233
 C         1.094761         0.399265        -3.022110
 O         1.012162         0.777614        -1.634160
 C         2.298205         0.812199        -1.058905
 C         3.011555        -0.327509        -1.759278
 C         2.167548         0.767375         0.478669
 O         2.802513         0.185209         1.306452
 H         3.819287        -1.387026        -4.397372
 H         2.868619        -2.453966        -3.105545
 H         2.321780        -1.939664        -4.782431
 H         2.793656         1.756933        -3.862631
 H         1.864396         0.894612        -4.964895
 H         0.173619         0.261042        -3.591586
 H         2.791742         1.852885        -1.147339
 H         4.057224        -0.177552        -1.909241
 H         2.923117        -1.298429        -1.136656
 H         1.268787         1.525408         0.750594
