19
Iteration:  4176charge 0 multiplicity 1
 C         2.409211        -1.702161        -3.864716
 C         2.438533        -0.369206        -3.186645
 C         2.353979         0.999019        -3.866078
 C         1.199806         0.400756        -3.002172
 O         1.002549         0.767215        -1.678217
 C         2.250437         0.700735        -1.024183
 C         3.053690        -0.358311        -1.845983
 C         2.117220         0.276765         0.477945
 O         2.836723         0.648524         1.332204
 H         3.500769        -2.055945        -3.996725
 H         1.858053        -2.421348        -3.277617
 H         2.149829        -1.536176        -4.889828
 H         2.925267         1.818420        -3.357922
 H         2.226495         1.220369        -5.005412
 H         0.308545        -0.017453        -3.582898
 H         2.937989         1.568874        -1.156941
 H         4.076022         0.064978        -1.948678
 H         3.016652        -1.399051        -1.464459
 H         1.320431        -0.519196         0.624510
