19
Iteration:  1650charge 0 multiplicity 1
 C         2.709397        -1.735053        -3.816655
 C         2.326568        -0.436713        -3.186869
 C         2.012631         0.782141        -4.062888
 C         1.088933         0.388683        -2.962121
 O         1.138005         1.096244        -1.642492
 C         2.494628         0.849212        -1.026855
 C         3.138853        -0.183017        -1.968093
 C         2.203134         0.168580         0.411778
 O         2.543576         0.425505         1.573276
 H         3.695542        -1.674149        -4.370758
 H         2.818836        -2.456508        -3.060406
 H         2.071194        -2.108051        -4.545487
 H         2.515916         1.658498        -4.132877
 H         1.594674         0.548779        -5.109271
 H         0.072700         0.301997        -3.122326
 H         3.052157         1.740936        -1.037794
 H         4.119945         0.276506        -2.280388
 H         3.485905        -1.103898        -1.512811
 H         1.593759        -0.787758         0.295743
