19
Iteration:  3264
 C         2.703966        -1.694136        -3.658206
 C         2.556471        -0.377748        -2.985801
 C         2.011011         0.639824        -3.989343
 C         1.090384         0.262474        -2.869817
 O         0.995399         1.083278        -1.700044
 C         2.297388         1.023708        -1.013914
 C         3.326582         0.069168        -1.718676
 C         1.994207         0.527653         0.390497
 O         2.768603        -0.169657         0.935708
 H         3.520756        -1.610281        -4.360256
 H         2.909457        -2.541508        -3.038664
 H         1.662330        -1.727479        -3.989826
 H         2.297998         1.691114        -4.325992
 H         1.772199         0.181058        -4.925559
 H         0.224324        -0.381377        -2.937117
 H         2.599965         2.044126        -1.053782
 H         4.077639         0.762969        -1.975915
 H         3.611763        -0.773947        -1.145628
 H         0.966003         1.051195         0.777257
