19
Iteration:  2892charge 0 multiplicity 1
 C         2.627102        -1.601637        -3.991445
 C         2.516520        -0.304240        -3.261111
 C         2.342389         0.995989        -3.848756
 C         1.151035         0.373640        -2.997659
 O         0.890639         0.636818        -1.616622
 C         2.199679         0.601882        -0.945606
 C         2.946883        -0.462670        -1.816245
 C         2.033313         0.414961         0.501765
 O         2.996475         0.693757         1.253431
 H         3.785518        -1.808432        -4.148839
 H         2.305011        -2.341624        -3.253978
 H         1.981321        -1.750329        -4.877153
 H         2.931937         1.827644        -3.442334
 H         2.164461         1.021640        -4.918283
 H         0.122781         0.316734        -3.457669
 H         2.570919         1.678680        -0.879776
 H         4.088157        -0.364938        -1.604773
 H         2.558016        -1.438931        -1.534153
 H         1.123473         0.096847         0.896400
