19
Iteration:   974charge 0 multiplicity 1
 C         2.521854        -1.753135        -3.861174
 C         2.459414        -0.422348        -3.122607
 C         2.320420         0.828544        -3.899889
 C         1.208080         0.401407        -3.036202
 O         0.950020         0.966523        -1.692370
 C         2.221525         0.867261        -0.983574
 C         3.144352        -0.214411        -1.744777
 C         2.000583         0.413840         0.418800
 O         2.898743         0.277991         1.242483
 H         2.120014        -1.699345        -4.905070
 H         3.585323        -1.942546        -4.065839
 H         1.980647        -2.645069        -3.297916
 H         2.628738         1.849828        -3.601427
 H         1.968256         0.620303        -4.974908
 H         0.199579        -0.015108        -3.369461
 H         2.748076         1.839855        -1.004552
 H         4.151046         0.245285        -1.787196
 H         3.263498        -1.034068        -1.111673
 H         0.888449         0.154100         0.728876
