19
Iteration:  1425charge 0 multiplicity 1
 C         2.668109        -1.803077        -3.770556
 C         2.416789        -0.414039        -3.110975
 C         2.072494         0.926439        -3.997756
 C         1.121406         0.355681        -2.909171
 O         1.082541         1.069323        -1.704950
 C         2.287250         0.874396        -0.985172
 C         3.227569        -0.216074        -1.844052
 C         1.932773         0.303088         0.373565
 O         2.828776         0.294283         1.257079
 H         3.625031        -1.760498        -4.262337
 H         2.733579        -2.636411        -3.004509
 H         1.974980        -2.205300        -4.619408
 H         2.578957         1.741943        -3.642163
 H         1.833446         0.712699        -5.049721
 H         0.157464        -0.029009        -3.194293
 H         2.860025         1.793935        -0.859728
 H         4.160375         0.314869        -2.054295
 H         3.471738        -1.129686        -1.131088
 H         0.930591        -0.190722         0.571497
