19
Iteration:  3158
 C         2.613958        -1.756841        -3.654122
 C         2.570184        -0.427941        -2.978078
 C         1.971978         0.758567        -3.912522
 C         1.144445         0.195452        -2.887112
 O         0.951042         1.072522        -1.742921
 C         2.289431         0.938261        -1.067134
 C         3.295021         0.177331        -1.800284
 C         2.007353         0.507129         0.334046
 O         2.854038        -0.122739         1.043831
 H         3.671165        -2.191565        -3.809204
 H         1.951555        -2.526647        -3.233151
 H         2.457031        -1.552773        -4.750761
 H         2.410995         1.764024        -3.586081
 H         1.821976         0.605457        -4.919141
 H         0.230118        -0.302202        -3.080002
 H         2.542100         2.026423        -0.917646
 H         4.275049         0.761143        -2.179982
 H         3.720798        -0.539283        -0.971934
 H         0.953900         0.780156         0.866029
