19
Iteration:  2175
 C         2.574054        -1.789632        -3.620478
 C         2.381078        -0.322318        -3.142895
 C         2.066286         0.750008        -4.040528
 C         1.087964         0.400125        -2.944131
 O         1.187249         1.063256        -1.674270
 C         2.460541         0.857835        -1.029850
 C         3.264006        -0.045372        -1.928349
 C         2.114678         0.158371         0.292620
 O         2.557017         0.317718         1.382098
 H         3.629368        -1.792663        -4.040699
 H         2.696962        -2.480249        -2.798824
 H         1.793185        -2.123684        -4.401247
 H         2.542118         1.836605        -3.934383
 H         1.670232         0.559619        -5.029868
 H         0.130686        -0.096428        -3.118747
 H         2.845409         1.897681        -0.794879
 H         4.226755         0.399968        -2.350880
 H         3.431927        -1.022622        -1.485623
 H         1.363249        -0.634810         0.257349
