19
Iteration:  1651
 C         2.714851        -1.739413        -3.815780
 C         2.333021        -0.445924        -3.198423
 C         2.015631         0.785591        -4.073755
 C         1.079092         0.391190        -2.958310
 O         1.139357         1.097635        -1.639817
 C         2.486141         0.848737        -1.023228
 C         3.141265        -0.183451        -1.957497
 C         2.202583         0.168324         0.398438
 O         2.547970         0.425333         1.580887
 H         3.685361        -1.665178        -4.348821
 H         2.785571        -2.434942        -3.070146
 H         2.038481        -2.106962        -4.553379
 H         2.530977         1.690245        -4.142325
 H         1.586391         0.555786        -5.119255
 H         0.050540         0.275772        -3.132656
 H         3.051258         1.773156        -1.010956
 H         4.124248         0.268784        -2.256137
 H         3.481342        -1.109862        -1.527405
 H         1.613831        -0.765170         0.322236
