19
Iteration:  2369
 C         2.700726        -1.776601        -3.676978
 C         2.390698        -0.328010        -3.169649
 C         2.168676         0.906829        -3.915818
 C         1.111267         0.329928        -3.067346
 O         0.982178         0.917762        -1.775652
 C         2.280654         0.781850        -1.085812
 C         3.086109        -0.186457        -1.843367
 C         2.066455         0.556318         0.534841
 O         2.874228         0.176519         1.320650
 H         3.686888        -1.891619        -4.031772
 H         2.478807        -2.447549        -2.754722
 H         2.069549        -2.061417        -4.575619
 H         2.862565         1.687014        -3.619027
 H         1.944535         1.022845        -5.033425
 H         0.153880        -0.084359        -3.456488
 H         2.743253         1.783276        -1.196910
 H         4.164943         0.154716        -2.012318
 H         3.149718        -1.204162        -1.432865
 H         1.011895         0.860467         0.742122
