19
Iteration:   309
 C         2.541864        -1.724392        -4.005385
 C         2.391180        -0.500686        -3.180025
 C         2.173705         0.967995        -3.869361
 C         1.155374         0.503422        -2.915339
 O         1.236420         0.947481        -1.500817
 C         2.549984         0.646837        -1.046900
 C         3.133813        -0.479227        -1.815566
 C         2.292506         0.203169         0.329702
 O         2.261584         0.789394         1.316052
 H         2.372917        -2.736846        -3.473834
 H         1.741205        -1.852581        -4.698810
 H         3.424648        -1.587841        -4.488539
 H         2.757508         1.801535        -3.536860
 H         1.929782         0.853267        -4.963243
 H         0.142566         0.306182        -3.105937
 H         3.215481         1.557035        -1.121132
 H         4.227007        -0.391828        -2.046709
 H         3.058147        -1.427471        -1.262296
 H         1.916115        -0.957459         0.358293
