19
Iteration:  2820charge 0 multiplicity 1
 C         2.605697        -1.634226        -4.091581
 C         2.451268        -0.361243        -3.212206
 C         2.151396         0.955460        -3.880389
 C         1.107793         0.408217        -3.007794
 O         1.126885         0.767057        -1.606723
 C         2.346660         0.650418        -1.014385
 C         3.117786        -0.476880        -1.764455
 C         2.085570         0.261777         0.527054
 O         2.721382         0.793390         1.382685
 H         3.557309        -1.695383        -4.509041
 H         2.254070        -2.541734        -3.549815
 H         1.773448        -1.648207        -4.815137
 H         2.826213         1.849557        -3.814408
 H         1.861601         0.770139        -4.874597
 H         0.183783        -0.012197        -3.312922
 H         2.918028         1.564363        -1.127204
 H         4.169281        -0.295162        -1.700116
 H         2.896761        -1.465783        -1.305716
 H         1.220897        -0.382325         0.588847
