19
Iteration:   344charge 0 multiplicity 1
 C         2.498539        -1.709506        -3.942364
 C         2.386092        -0.386889        -3.205674
 C         2.199731         0.908711        -4.025281
 C         1.165336         0.346920        -3.000418
 O         1.243259         1.024187        -1.608374
 C         2.423601         0.601956        -0.973641
 C         3.133346        -0.399576        -1.905293
 C         2.124516         0.152033         0.468880
 O         2.497661         0.760863         1.486873
 H         2.443580        -2.602443        -3.286664
 H         1.912447        -1.614482        -4.904721
 H         3.482144        -1.848350        -4.282749
 H         2.681979         1.771087        -3.585991
 H         2.050002         1.014989        -5.064999
 H         0.276729        -0.093601        -3.452016
 H         3.079656         1.532240        -0.865307
 H         4.165286         0.025552        -1.944444
 H         3.162790        -1.359376        -1.451824
 H         1.336297        -0.793394         0.459640
