19
Iteration:   957
 C         2.637347        -1.686492        -3.826677
 C         2.409432        -0.412514        -3.095707
 C         2.187542         0.919204        -3.882752
 C         1.097826         0.312790        -2.943062
 O         1.080004         1.028677        -1.754202
 C         2.304289         0.761910        -1.038565
 C         3.115001        -0.304558        -1.769273
 C         1.967334         0.420890         0.412174
 O         2.840578         0.319685         1.230132
 H         1.806591        -1.877261        -4.459157
 H         3.667226        -1.710209        -4.234042
 H         2.515763        -2.585665        -3.251674
 H         2.818027         1.774189        -3.548708
 H         2.210823         0.842678        -4.922493
 H         0.182693         0.011371        -3.320957
 H         2.884021         1.698738        -0.966805
 H         4.200067        -0.079621        -1.905605
 H         3.062606        -1.360204        -1.279864
 H         0.922092         0.320683         0.658153
