19
Iteration:  3539charge 0 multiplicity 1
 C         2.770269        -1.787355        -3.778887
 C         2.360881        -0.424891        -3.184916
 C         2.118417         0.949894        -3.912836
 C         1.098752         0.392635        -3.016899
 O         0.958559         0.921023        -1.659881
 C         2.249440         0.789712        -1.030170
 C         3.080260        -0.187427        -1.801770
 C         2.001651         0.366926         0.410531
 O         2.949782         0.309797         1.252018
 H         3.845498        -1.735052        -4.031542
 H         2.812993        -2.458081        -2.927879
 H         2.145937        -2.254614        -4.592076
 H         2.692606         1.838717        -3.534881
 H         2.006018         0.819786        -4.967196
 H         0.179384         0.360810        -3.610466
 H         2.875734         1.711605        -0.941354
 H         4.031489         0.352235        -1.945727
 H         3.432392        -1.008958        -1.197504
 H         0.908101         0.222319         0.711534
