19
Iteration:  3557
 C         2.753106        -1.741614        -3.765209
 C         2.440571        -0.346464        -3.161882
 C         2.219070         0.916660        -3.944794
 C         1.050936         0.468197        -3.018476
 O         0.928771         0.809062        -1.693298
 C         2.204162         0.785543        -0.998822
 C         3.107461        -0.241542        -1.801501
 C         1.993513         0.392961         0.445627
 O         2.994754         0.365202         1.236828
 H         3.707032        -1.658864        -4.273454
 H         2.692785        -2.531981        -2.961697
 H         1.926439        -1.910408        -4.495115
 H         2.862101         1.878451        -3.756691
 H         1.876717         0.881946        -4.969542
 H         0.077492         0.006878        -3.308966
 H         2.484833         1.838115        -0.974077
 H         4.212497        -0.208258        -1.743930
 H         2.834870        -1.239629        -1.342194
 H         0.952062         0.090541         0.727303
