19
Iteration:   470
 C         2.750012        -1.674071        -3.810139
 C         2.399691        -0.463278        -3.012720
 C         2.334826         0.907261        -3.746800
 C         1.128294         0.316411        -3.082146
 O         0.889595         0.978111        -1.823665
 C         2.139994         0.902974        -1.075332
 C         2.884069        -0.360144        -1.571810
 C         2.081219         0.647565         0.442047
 O         2.986783         0.100232         1.061387
 H         2.441405        -2.510586        -3.235922
 H         2.355485        -1.828475        -4.775005
 H         3.927062        -1.503937        -4.004789
 H         3.056485         1.738104        -3.519247
 H         2.415748         0.883046        -4.847019
 H         0.295798        -0.029671        -3.617332
 H         2.812975         1.741560        -1.382827
 H         3.927431        -0.225544        -1.435219
 H         2.557039        -1.142962        -0.956579
 H         1.190068         1.035734         0.904491
