19
Iteration:  3102charge 0 multiplicity 1
 C         2.771975        -1.701999        -3.606267
 C         2.490423        -0.288210        -3.154584
 C         1.992248         0.801955        -4.085243
 C         1.080192         0.374850        -2.931416
 O         0.923070         1.008664        -1.709928
 C         2.289412         0.921075        -1.092153
 C         3.171182        -0.045912        -1.776164
 C         2.071646         0.460207         0.413783
 O         2.901703        -0.088639         1.224126
 H         3.906326        -1.866315        -3.603290
 H         2.655186        -2.401503        -2.789473
 H         2.302748        -2.154637        -4.505941
 H         2.364291         1.811635        -4.227252
 H         1.765050         0.285066        -5.038779
 H         0.088947        -0.046075        -3.162874
 H         2.660010         1.965203        -1.099029
 H         4.208765         0.424427        -1.976526
 H         3.075273        -0.986228        -1.177135
 H         0.996873         0.716327         0.792483
