19
Iteration:  3883charge 0 multiplicity 1
 C         2.462900        -1.737883        -3.835389
 C         2.464096        -0.405832        -3.170654
 C         2.155349         0.852367        -3.943954
 C         1.147415         0.303323        -3.000936
 O         1.107188         0.991323        -1.686522
 C         2.388697         0.784908        -1.051507
 C         3.259948        -0.099698        -1.814829
 C         1.984001         0.230718         0.367358
 O         2.737359         0.411264         1.399278
 H         3.334132        -1.981105        -4.519547
 H         2.315968        -2.448798        -2.955461
 H         1.471627        -1.860152        -4.303360
 H         2.677616         1.661186        -3.498487
 H         2.043296         0.943390        -5.115423
 H         0.222787        -0.080611        -3.337581
 H         2.882195         1.768141        -0.907287
 H         4.203001         0.468260        -1.872233
 H         3.579830        -1.025514        -1.244533
 H         1.034823        -0.277871         0.410435
