19
Iteration:  1579
 C         2.381164        -1.684733        -3.776351
 C         2.488735        -0.314992        -3.189223
 C         1.996188         0.806192        -4.042905
 C         1.160307         0.247987        -2.877367
 O         1.216908         0.943550        -1.656955
 C         2.560219         0.800859        -0.990778
 C         3.382944        -0.056380        -1.940562
 C         2.180377         0.132934         0.303778
 O         2.388248         0.486788         1.492624
 H         3.260659        -2.006113        -4.304721
 H         2.100225        -2.441579        -2.925847
 H         1.624413        -1.652579        -4.664273
 H         2.190380         1.884305        -4.007964
 H         1.873495         0.658584        -5.098446
 H         0.312012        -0.380265        -3.184398
 H         2.908213         1.862083        -0.836173
 H         4.209939         0.544437        -2.272180
 H         3.973263        -0.901354        -1.538932
 H         1.686404        -0.888318         0.295049
