19
Iteration:  3615
 C         2.600591        -1.624895        -4.092854
 C         2.421413        -0.410310        -3.165756
 C         2.335627         0.933243        -3.723595
 C         1.087927         0.280992        -2.948513
 O         0.954455         0.731991        -1.649227
 C         2.187178         0.703706        -0.985714
 C         3.102359        -0.417361        -1.743758
 C         2.004825         0.467610         0.396296
 O         2.948771         0.634223         1.250182
 H         3.695297        -1.857498        -4.235351
 H         2.147219        -2.572195        -3.803036
 H         2.212212        -1.271313        -5.116339
 H         2.846543         1.771511        -3.244154
 H         2.108677         0.987325        -4.851830
 H         0.241089        -0.160726        -3.448050
 H         2.691843         1.683814        -0.905061
 H         4.112332         0.072286        -1.807312
 H         3.276410        -1.334724        -1.089487
 H         0.961755         0.365231         0.715220
