19
Iteration:  4471charge 0 multiplicity 1
 C         2.632695        -1.693487        -3.926771
 C         2.383320        -0.492562        -3.210221
 C         2.242936         0.921720        -3.892416
 C         1.106153         0.398174        -2.974971
 O         1.050555         0.929483        -1.719177
 C         2.351361         0.696663        -0.946899
 C         3.017534        -0.430581        -1.800198
 C         1.975168         0.494824         0.446048
 O         2.892695         0.480057         1.370870
 H         3.625326        -1.728952        -4.419551
 H         2.491352        -2.498793        -3.254236
 H         1.927037        -1.846132        -4.702595
 H         2.835989         1.907896        -3.608897
 H         2.014562         0.932238        -5.001108
 H         0.100387         0.363929        -3.486860
 H         3.042887         1.605924        -1.065885
 H         4.133058        -0.345043        -1.875903
 H         2.959786        -1.358318        -1.297520
 H         0.894152         0.418840         0.616677
