19
Iteration:  3499
 C         2.618090        -1.681222        -3.849254
 C         2.522725        -0.404683        -3.021079
 C         2.043228         0.853542        -3.995956
 C         1.138157         0.230115        -2.930903
 O         1.048576         0.949962        -1.715656
 C         2.272948         0.894886        -1.014611
 C         3.266258        -0.032664        -1.677972
 C         1.998440         0.434072         0.327339
 O         2.838739         0.176415         1.240410
 H         3.561579        -2.229571        -4.187122
 H         2.169947        -2.566085        -3.264284
 H         1.951685        -1.552322        -4.669979
 H         2.209841         1.868716        -4.003628
 H         1.816273         0.423401        -5.006580
 H         0.172163        -0.260247        -3.047109
 H         2.595580         1.959424        -1.028048
 H         4.168810         0.493385        -1.997764
 H         3.523418        -0.921448        -1.047661
 H         0.947621        -0.026928         0.467340
