19
Iteration:  4829
 C         2.428742        -1.720935        -3.890845
 C         2.425973        -0.386130        -3.216744
 C         2.221160         0.825415        -3.998235
 C         1.191822         0.347457        -2.907381
 O         1.172381         1.005744        -1.647701
 C         2.405605         0.832221        -1.016728
 C         3.148733        -0.355264        -1.812292
 C         2.163463         0.312829         0.335410
 O         2.575693         0.488288         1.449263
 H         3.384971        -1.735229        -4.447612
 H         2.473765        -2.562524        -3.171828
 H         1.608879        -1.809040        -4.604597
 H         2.838221         1.732531        -3.818052
 H         1.795932         0.737028        -4.976667
 H         0.285443        -0.018363        -3.245112
 H         2.973196         1.829246        -1.128115
 H         4.230748        -0.008670        -1.765717
 H         2.992460        -1.202337        -1.176707
 H         1.246245        -0.385614         0.259352
