19
Iteration:  1967charge 0 multiplicity 1
 C         2.622689        -1.745525        -3.773590
 C         2.467834        -0.340529        -3.217331
 C         2.103462         0.860970        -3.987361
 C         1.114052         0.447185        -2.979089
 O         1.077672         0.931324        -1.566773
 C         2.395930         0.798408        -1.068736
 C         3.159430        -0.208065        -1.816330
 C         2.123078         0.181124         0.361318
 O         2.671598         0.492601         1.330724
 H         3.677314        -2.027825        -4.065815
 H         2.482443        -2.510729        -3.007480
 H         1.890558        -1.844212        -4.609518
 H         2.626279         1.743496        -3.949048
 H         1.534309         0.520266        -4.933545
 H         0.108572         0.122810        -3.247268
 H         2.864881         1.830872        -1.006544
 H         4.229705         0.091927        -1.620553
 H         2.957858        -1.222098        -1.400606
 H         1.427307        -0.658770         0.056143
