19
Iteration:  1917
 C         2.600940        -1.709187        -4.065603
 C         2.458932        -0.506431        -3.143512
 C         2.244462         0.896632        -3.869115
 C         1.156872         0.318153        -2.966381
 O         0.977367         0.947155        -1.698539
 C         2.202364         0.768104        -0.950772
 C         3.129256        -0.266612        -1.755200
 C         2.036325         0.277895         0.443314
 O         2.881401         0.594775         1.351774
 H         3.656376        -1.851043        -4.392019
 H         2.204722        -2.638128        -3.569301
 H         1.967662        -1.655652        -5.029537
 H         2.817791         1.760685        -3.526716
 H         2.047734         0.641979        -4.937150
 H         0.143002         0.087661        -3.242274
 H         2.623914         1.784995        -0.850604
 H         4.125514         0.133049        -1.904400
 H         3.231153        -1.195763        -1.150858
 H         1.117954        -0.333048         0.504463
