19
Iteration:  4057charge 0 multiplicity 1
 C         2.503497        -1.647681        -3.883523
 C         2.510372        -0.315423        -3.173305
 C         2.234124         1.017233        -3.842919
 C         1.229159         0.333530        -3.008278
 O         0.969995         0.699162        -1.698116
 C         2.270501         0.750983        -1.082045
 C         3.010964        -0.436319        -1.657855
 C         2.095202         0.606871         0.383748
 O         2.914235         0.378842         1.306661
 H         3.503036        -1.898452        -4.340816
 H         2.312378        -2.300592        -3.042566
 H         1.872146        -1.684385        -4.750330
 H         2.885947         1.946977        -3.596467
 H         1.966817         0.975163        -4.878348
 H         0.252824         0.076731        -3.482671
 H         2.728541         1.678377        -1.474840
 H         4.036012        -0.109791        -1.612507
 H         2.716802        -1.442590        -1.350486
 H         0.963203         0.534218         0.626512
