19
Iteration:  4259
 C         2.515652        -1.716063        -3.938485
 C         2.448692        -0.355647        -3.196574
 C         2.087292         0.971504        -3.953635
 C         1.215339         0.327162        -2.899152
 O         1.182407         0.965492        -1.651567
 C         2.472269         0.769145        -1.021070
 C         3.131141        -0.454478        -1.880469
 C         2.092570         0.283791         0.398884
 O         2.607842         0.606977         1.452259
 H         3.431646        -1.908387        -4.466260
 H         2.405587        -2.500607        -3.128601
 H         1.559186        -1.915408        -4.531293
 H         2.580108         1.915977        -3.687929
 H         1.817991         0.829517        -4.979012
 H         0.152327         0.010003        -3.184330
 H         3.115790         1.683201        -1.198049
 H         4.230817        -0.546698        -2.010214
 H         2.932278        -1.427227        -1.392216
 H         1.203295        -0.448776         0.322267
