19
Iteration:  3474charge 0 multiplicity 1
 C         2.579841        -1.662083        -3.744386
 C         2.585454        -0.345549        -3.198914
 C         1.969102         0.791399        -4.037661
 C         1.196209         0.177215        -2.892153
 O         1.048117         0.980434        -1.692225
 C         2.333885         0.888495        -0.979173
 C         3.312323         0.034888        -1.850831
 C         1.964030         0.396140         0.436282
 O         2.766059         0.142397         1.244205
 H         3.589581        -2.166542        -3.840273
 H         2.260927        -2.400233        -3.039469
 H         1.987152        -1.815146        -4.694887
 H         2.374525         1.827129        -3.818519
 H         1.828188         0.569130        -5.030886
 H         0.242504        -0.345374        -3.034761
 H         2.503925         1.980660        -0.833046
 H         4.356695         0.351381        -2.013990
 H         3.312112        -0.892468        -1.300971
 H         0.857096         0.297419         0.633854
