19
Iteration:  1835charge 0 multiplicity 1
 C         2.696180        -1.655547        -4.042876
 C         2.444717        -0.444275        -3.129757
 C         2.341838         0.960961        -3.782361
 C         1.155603         0.392458        -3.028442
 O         0.846182         0.671138        -1.666453
 C         2.180257         0.626322        -1.041193
 C         2.941465        -0.431029        -1.743419
 C         2.073408         0.687150         0.553286
 O         2.981035         0.497118         1.250722
 H         3.824564        -1.761938        -4.224940
 H         2.460467        -2.654724        -3.562993
 H         2.245718        -1.533461        -5.023619
 H         2.760177         2.019659        -3.629398
 H         2.319834         0.981160        -4.809053
 H         0.160993         0.162084        -3.524164
 H         2.635905         1.674818        -1.202548
 H         4.012924        -0.110792        -1.791860
 H         2.923933        -1.432338        -1.289610
 H         1.040683         1.061906         0.952159
