19
Iteration:  1580charge 0 multiplicity 1
 C         2.376786        -1.674932        -3.778978
 C         2.494242        -0.318596        -3.190026
 C         1.990444         0.797085        -4.045911
 C         1.160014         0.238247        -2.870951
 O         1.219512         0.945867        -1.656733
 C         2.552129         0.805884        -0.988408
 C         3.390325        -0.057396        -1.935864
 C         2.174567         0.130681         0.302746
 O         2.390721         0.489064         1.484552
 H         3.255469        -2.003665        -4.324709
 H         2.093218        -2.419245        -2.908774
 H         1.633573        -1.639647        -4.637715
 H         2.197865         1.917074        -3.971777
 H         1.883851         0.691738        -5.074664
 H         0.297545        -0.383365        -3.214591
 H         2.908860         1.832644        -0.828843
 H         4.246598         0.518525        -2.260725
 H         3.993585        -0.908769        -1.539466
 H         1.684027        -0.869187         0.276307
