19
Iteration:  1853
 C         2.659993        -1.722651        -3.996736
 C         2.464835        -0.364909        -3.333317
 C         2.259439         1.058238        -3.763048
 C         1.168106         0.307313        -3.037463
 O         0.923667         0.685126        -1.685824
 C         2.124394         0.575043        -0.945078
 C         3.092524        -0.445076        -1.783332
 C         2.045763         0.687079         0.557479
 O         2.938437         0.536949         1.255105
 H         3.641443        -2.004930        -4.126293
 H         2.305527        -2.429252        -3.222999
 H         2.040443        -1.760960        -4.879511
 H         2.978678         1.641292        -3.188486
 H         2.119898         1.505550        -4.839197
 H         0.295080         0.083857        -3.601853
 H         2.591425         1.566830        -0.939879
 H         4.116198        -0.207072        -1.552725
 H         2.821517        -1.449630        -1.441724
 H         1.140624         1.095005         0.958075
