19
Iteration:  3500charge 0 multiplicity 1
 C         2.618443        -1.677499        -3.849894
 C         2.519706        -0.410901        -3.023917
 C         2.042099         0.848135        -3.986418
 C         1.141989         0.225915        -2.937134
 O         1.039830         0.955574        -1.712147
 C         2.282682         0.893173        -1.019262
 C         3.263585        -0.032467        -1.683262
 C         1.998752         0.428293         0.328099
 O         2.842967         0.179626         1.242387
 H         3.589774        -2.177497        -4.185429
 H         2.153399        -2.553497        -3.230640
 H         1.956744        -1.563343        -4.677449
 H         2.236176         1.873203        -3.981335
 H         1.844437         0.420658        -5.034573
 H         0.159396        -0.227379        -3.067881
 H         2.565270         1.955371        -1.026165
 H         4.171225         0.490356        -1.997071
 H         3.500625        -0.920626        -1.027484
 H         0.923289        -0.017827         0.467569
