19
Iteration:  3231
 C         2.853925        -1.799103        -3.481030
 C         2.368047        -0.401035        -3.129465
 C         2.047687         0.809963        -3.929605
 C         1.044971         0.270572        -2.938793
 O         1.020861         1.035378        -1.692412
 C         2.351768         1.065604        -1.075942
 C         3.163564         0.092446        -1.941745
 C         2.030042         0.526564         0.406911
 O         2.776467        -0.196867         1.050359
 H         3.444317        -1.868896        -4.383618
 H         3.041732        -2.304025        -2.576688
 H         1.972574        -2.367802        -3.837315
 H         2.463426         1.767667        -3.390645
 H         1.959567         0.736794        -4.957044
 H         0.080550        -0.133235        -3.137538
 H         2.782598         2.061133        -1.070693
 H         4.113979         0.561631        -2.203462
 H         3.672562        -0.708245        -1.514977
 H         1.012126         0.783870         1.067819
