19
Iteration:  2682
 C         2.581622        -1.732427        -3.862989
 C         2.370277        -0.462208        -3.194465
 C         2.089566         0.853239        -4.013459
 C         1.135616         0.413562        -2.894438
 O         1.166526         0.970729        -1.620076
 C         2.473943         0.715337        -1.005522
 C         3.251833        -0.187761        -1.906119
 C         1.963902         0.239525         0.398554
 O         2.666357         0.496931         1.404724
 H         3.497877        -1.683051        -4.473008
 H         2.665429        -2.476837        -3.146969
 H         1.709548        -2.042476        -4.348628
 H         2.598518         1.857381        -3.940911
 H         1.900059         0.611322        -5.033359
 H         0.162288         0.047940        -3.137515
 H         2.863635         1.740715        -0.885519
 H         4.189825         0.344820        -2.055862
 H         3.489218        -1.199690        -1.542373
 H         0.822168        -0.009932         0.419435
