19
Iteration:  4015
 C         2.522187        -1.729312        -3.927702
 C         2.422923        -0.492556        -3.128511
 C         2.326540         0.925169        -3.847412
 C         1.160917         0.343774        -2.980447
 O         0.920959         0.878517        -1.676423
 C         2.173632         0.822162        -1.076298
 C         3.123723        -0.235528        -1.803467
 C         1.996503         0.482536         0.453915
 O         2.984337         0.328336         1.277931
 H         3.537589        -2.104145        -3.958963
 H         1.950802        -2.599592        -3.520309
 H         2.437223        -1.524441        -5.034893
 H         3.108176         1.607321        -3.374675
 H         2.139842         0.768248        -4.853196
 H         0.141766         0.210152        -3.453690
 H         2.751252         1.734833        -0.939554
 H         4.011974         0.347025        -1.954084
 H         3.356493        -0.998159        -0.982582
 H         0.986218         0.588352         0.826210
