19
Iteration:  2186
 C         2.566125        -1.704917        -3.626979
 C         2.371120        -0.425387        -3.068239
 C         2.081757         0.734823        -4.049063
 C         1.092029         0.370682        -2.884394
 O         1.186572         1.072618        -1.630790
 C         2.390592         0.884771        -0.985040
 C         3.289774        -0.047049        -1.908256
 C         2.060714         0.118423         0.175931
 O         2.607047         0.358003         1.311341
 H         3.516401        -1.745948        -4.236401
 H         2.452563        -2.517467        -2.931116
 H         1.852406        -1.978354        -4.512119
 H         2.689127         1.777914        -3.857095
 H         1.944270         0.495287        -5.105329
 H         0.112273        -0.116730        -3.049272
 H         2.905755         1.877912        -0.766611
 H         4.325391         0.436172        -2.094763
 H         3.585352        -0.946963        -1.345689
 H         1.312818        -0.600902        -0.171621
