19
Iteration:   774
 C         2.635874        -1.594752        -4.108794
 C         2.406595        -0.453819        -3.082499
 C         2.292605         0.855887        -3.830788
 C         1.170178         0.409552        -3.006790
 O         1.114737         0.945683        -1.617956
 C         2.406261         0.616982        -0.998798
 C         2.983888        -0.567174        -1.769680
 C         1.994261         0.439302         0.406377
 O         2.715716         0.659681         1.347073
 H         2.803616        -2.583973        -3.551819
 H         1.652961        -1.685628        -4.759808
 H         3.308383        -1.393128        -4.876140
 H         2.773969         1.710904        -3.422162
 H         2.321495         0.942057        -4.903015
 H         0.146236         0.095198        -3.274506
 H         3.082676         1.493246        -0.983733
 H         4.034279        -0.487134        -1.774060
 H         2.602935        -1.487913        -1.281556
 H         0.937654        -0.010965         0.521287
