19
Iteration:  1773charge 0 multiplicity 1
 C         2.719372        -1.638982        -3.863210
 C         2.472464        -0.368956        -3.169429
 C         2.170488         0.953264        -3.871274
 C         1.114595         0.335857        -3.020841
 O         0.977057         0.890482        -1.735645
 C         2.181536         0.652302        -1.035073
 C         2.996135        -0.384952        -1.707960
 C         2.009311         0.502627         0.481608
 O         2.995398         0.426661         1.222305
 H         3.770426        -1.538171        -4.161567
 H         2.557374        -2.425624        -3.209958
 H         2.096372        -1.899606        -4.788164
 H         2.683228         1.866237        -3.404227
 H         2.137532         0.743854        -4.919574
 H         0.194822        -0.124745        -3.500899
 H         2.765713         1.543165        -1.152359
 H         4.043500        -0.090723        -1.485739
 H         2.850976        -1.349703        -1.197814
 H         1.000430         0.329787         0.923081
