19
Iteration:   444
 C         2.749724        -1.763550        -3.729838
 C         2.467283        -0.396171        -3.111819
 C         2.409096         0.861843        -3.900425
 C         1.161537         0.471139        -3.132992
 O         0.868963         0.947616        -1.699053
 C         2.061533         0.868836        -0.975463
 C         2.888934        -0.325320        -1.659871
 C         2.020396         0.543085         0.518105
 O         3.019816         0.175948         1.046865
 H         2.448627        -2.582538        -2.991397
 H         2.194329        -1.924077        -4.755193
 H         3.809441        -1.778575        -4.062605
 H         2.931188         1.796977        -3.762025
 H         2.443244         0.753834        -5.013655
 H         0.165179         0.224827        -3.625945
 H         2.705240         1.806602        -1.097881
 H         3.986695        -0.224095        -1.521798
 H         2.488022        -1.257044        -1.168279
 H         1.129336         0.824388         0.995289
