19
Iteration:  4855charge 0 multiplicity 1
 C         2.471689        -1.783734        -3.807999
 C         2.338779        -0.420543        -3.186408
 C         2.266836         0.854854        -3.942448
 C         1.148535         0.509483        -3.054567
 O         1.129122         0.932708        -1.619584
 C         2.420268         0.832025        -0.969525
 C         3.178959        -0.322150        -1.893007
 C         2.112295         0.257760         0.320258
 O         2.639708         0.524876         1.434518
 H         3.565237        -1.898185        -4.136551
 H         2.245304        -2.606418        -3.105958
 H         1.738581        -1.798044        -4.703394
 H         2.727532         1.744630        -3.644548
 H         1.962453         0.851328        -4.986325
 H         0.146318         0.145675        -3.467466
 H         2.927697         1.749020        -1.046901
 H         4.195601        -0.038527        -2.006056
 H         3.097149        -1.159395        -1.179152
 H         1.468115        -0.693675         0.309344
