19
Iteration:  4485
 C         2.588333        -1.721979        -4.012848
 C         2.360357        -0.395407        -3.128581
 C         2.324641         0.868326        -3.926373
 C         1.147567         0.459217        -3.077969
 O         1.008180         0.876886        -1.652033
 C         2.242332         0.717891        -1.067048
 C         3.025882        -0.402263        -1.766338
 C         2.075061         0.533422         0.531463
 O         2.895998         0.455095         1.411199
 H         3.649333        -1.736712        -4.250960
 H         2.461071        -2.692424        -3.443006
 H         1.920703        -1.796457        -4.951340
 H         2.861520         1.732292        -3.630873
 H         2.153078         0.530130        -4.953448
 H         0.132028         0.065204        -3.443562
 H         2.840614         1.677472        -1.125822
 H         4.029055        -0.089472        -1.797075
 H         2.974780        -1.402273        -1.299562
 H         0.967095         0.435274         0.789074
