19
Iteration:  4321charge 0 multiplicity 1
 C         2.433211        -1.743893        -3.978970
 C         2.420131        -0.494361        -3.171045
 C         2.206369         0.847927        -3.996442
 C         1.128255         0.384757        -2.924592
 O         1.162353         1.002419        -1.655279
 C         2.438788         0.811870        -1.045451
 C         3.142347        -0.240824        -1.820442
 C         2.180557         0.190269         0.360723
 O         2.604172         0.592883         1.512581
 H         3.371190        -2.138495        -4.409875
 H         2.127053        -2.622616        -3.374387
 H         1.683900        -1.497665        -4.767092
 H         2.804921         1.646204        -3.499461
 H         2.154737         0.821572        -5.051191
 H         0.183562         0.055016        -3.260511
 H         2.823039         1.798137        -0.881587
 H         4.167090         0.052508        -1.973814
 H         3.205972        -1.279532        -1.321850
 H         1.442593        -0.675795         0.406945
