19
Iteration:  3199
 C         2.660763        -1.758192        -3.514959
 C         2.485151        -0.301969        -3.082904
 C         1.992479         0.766955        -4.083526
 C         1.183422         0.329257        -2.909540
 O         0.957162         0.927692        -1.663010
 C         2.274200         0.982192        -1.053227
 C         3.311650         0.150114        -1.835466
 C         2.000297         0.501844         0.380380
 O         2.819669        -0.170506         1.073366
 H         3.623476        -2.062534        -4.035488
 H         2.697875        -2.491083        -2.727871
 H         1.812341        -1.978016        -4.211425
 H         2.560636         1.772192        -4.033655
 H         1.666766         0.471130        -5.039979
 H         0.331488        -0.222380        -3.242603
 H         2.736936         2.026233        -0.955631
 H         4.213535         0.850284        -1.992832
 H         3.475002        -0.814271        -1.337603
 H         1.179256         1.014766         0.855117
