19
Iteration:  3235
 C         2.833904        -1.812624        -3.521538
 C         2.374458        -0.423279        -3.114201
 C         2.065002         0.801478        -3.914639
 C         1.038056         0.267923        -2.911724
 O         1.033716         1.050619        -1.700034
 C         2.324049         1.096341        -1.059650
 C         3.172349         0.101414        -1.926714
 C         1.990107         0.534162         0.383481
 O         2.796869        -0.211221         1.049072
 H         3.527414        -1.694026        -4.432768
 H         3.134316        -2.415066        -2.626583
 H         1.895950        -2.350352        -3.848536
 H         2.528288         1.701102        -3.600446
 H         1.902931         0.763338        -5.040822
 H         0.075637        -0.267214        -3.007774
 H         2.609984         2.239581        -0.969409
 H         4.281814         0.527991        -2.228791
 H         3.659159        -0.820733        -1.336865
 H         1.139745         0.825375         0.935137
