19
Iteration:  2320charge 0 multiplicity 1
 C         2.556364        -1.739855        -3.771595
 C         2.467476        -0.410905        -3.001075
 C         2.183897         0.714424        -3.954155
 C         1.200639         0.272919        -2.914146
 O         1.033867         1.061943        -1.727342
 C         2.209124         0.960813        -0.995026
 C         3.208041        -0.066223        -1.734718
 C         1.955638         0.325248         0.284851
 O         2.879387         0.213334         1.166642
 H         3.589101        -1.784857        -4.348289
 H         2.318355        -2.625422        -3.186133
 H         1.902256        -1.550619        -4.617756
 H         2.667458         1.646026        -3.798013
 H         2.109064         0.525254        -5.009891
 H         0.187795        -0.050882        -3.147470
 H         2.547812         1.999949        -0.883071
 H         4.175638         0.418457        -1.823466
 H         3.292535        -0.898730        -0.923369
 H         0.852579        -0.022838         0.396636
