19
Iteration:   594charge 0 multiplicity 1
 C         2.593480        -1.699050        -3.924205
 C         2.432116        -0.443871        -3.104606
 C         2.340168         0.892166        -3.896584
 C         1.162308         0.320037        -3.005325
 O         1.055420         0.960658        -1.712389
 C         2.349456         0.835910        -1.058516
 C         3.062269        -0.325383        -1.762460
 C         1.999255         0.553436         0.444896
 O         2.739749         0.291520         1.386657
 H         2.414602        -2.689368        -3.384346
 H         1.764550        -1.670040        -4.694485
 H         3.645138        -1.651099        -4.377939
 H         2.669134         1.868798        -3.719292
 H         2.090142         0.695854        -4.953571
 H         0.199955        -0.082270        -3.368012
 H         2.887407         1.837186        -1.119055
 H         4.176591        -0.223632        -1.902827
 H         2.967609        -1.301527        -1.290095
 H         0.820634         0.323647         0.371745
