19
Iteration:  1582
 C         2.367728        -1.660027        -3.783597
 C         2.505713        -0.325916        -3.188696
 C         1.981028         0.787825        -4.046493
 C         1.159353         0.218942        -2.861736
 O         1.223612         0.950993        -1.656372
 C         2.533288         0.813942        -0.985069
 C         3.407030        -0.058961        -1.929411
 C         2.164974         0.125328         0.308309
 O         2.395381         0.494045         1.465161
 H         3.263399        -2.007278        -4.354549
 H         2.090708        -2.352109        -2.927446
 H         1.648687        -1.622866        -4.561668
 H         2.223124         1.935142        -3.883687
 H         1.878125         0.723563        -5.087511
 H         0.274581        -0.371908        -3.234565
 H         2.917675         1.781180        -0.812327
 H         4.322674         0.491259        -2.246179
 H         3.995555        -0.928775        -1.535231
 H         1.672081        -0.836134         0.213601
