19
Iteration:  3159charge 0 multiplicity 1
 C         2.606158        -1.758717        -3.660170
 C         2.572694        -0.422370        -2.968886
 C         1.974962         0.756058        -3.923353
 C         1.148118         0.190694        -2.883810
 O         0.954370         1.065036        -1.746138
 C         2.292464         0.951743        -1.066491
 C         3.294908         0.186437        -1.797452
 C         2.006899         0.500276         0.340977
 O         2.853939        -0.124330         1.044636
 H         3.647213        -2.142631        -3.823016
 H         1.923864        -2.514478        -3.232768
 H         2.444526        -1.571106        -4.745538
 H         2.401749         1.741821        -3.594399
 H         1.842705         0.613971        -4.949542
 H         0.227503        -0.313075        -3.080824
 H         2.530335         2.012834        -0.942746
 H         4.247946         0.717841        -2.143303
 H         3.721360        -0.515289        -0.989891
 H         0.950565         0.793988         0.886665
