19
Iteration:  4827
 C         2.428261        -1.730284        -3.905793
 C         2.429405        -0.398251        -3.208022
 C         2.220136         0.822845        -3.994762
 C         1.203103         0.338839        -2.924901
 O         1.173554         1.017838        -1.646867
 C         2.406893         0.830847        -1.001266
 C         3.152486        -0.346013        -1.817596
 C         2.150953         0.321623         0.363190
 O         2.577814         0.489112         1.432123
 H         3.327998        -1.715190        -4.457451
 H         2.480200        -2.514904        -3.124144
 H         1.632382        -1.764490        -4.597769
 H         2.808701         1.769854        -3.747854
 H         1.764106         0.757421        -5.023487
 H         0.213589        -0.084662        -3.201584
 H         2.999374         1.803268        -1.084786
 H         4.222548        -0.023493        -1.772463
 H         2.990778        -1.261446        -1.231978
 H         1.269515        -0.403864         0.214778
