19
Iteration:  1144charge 0 multiplicity 1
 C         2.519802        -1.703635        -3.930815
 C         2.425297        -0.357279        -3.202219
 C         2.200934         0.964899        -3.920033
 C         1.162461         0.374859        -3.029573
 O         0.998940         0.688338        -1.620625
 C         2.408777         0.842828        -1.037821
 C         3.122099        -0.323669        -1.842399
 C         2.071348         0.393458         0.424976
 O         2.840718         0.516465         1.422998
 H         3.476556        -2.100084        -3.699120
 H         1.667275        -2.301750        -3.572469
 H         2.669756        -1.655708        -4.992201
 H         2.748857         1.830516        -3.608523
 H         1.900280         0.760955        -4.945217
 H         0.068003         0.114134        -3.431631
 H         2.677723         1.886637        -1.061360
 H         4.207496        -0.307511        -1.740111
 H         2.815775        -1.241863        -1.191593
 H         1.035483         0.180519         0.524505
