19
Iteration:   291charge 0 multiplicity 1
 C         2.389348        -1.613200        -4.077864
 C         2.364172        -0.420414        -3.176999
 C         2.298073         0.874197        -3.821933
 C         1.144270         0.313776        -2.798859
 O         1.241102         0.870469        -1.552738
 C         2.646151         0.709143        -1.053153
 C         3.220065        -0.454578        -1.948614
 C         2.268566         0.207548         0.409271
 O         2.187197         0.856884         1.372232
 H         2.234877        -2.544536        -3.510250
 H         1.520353        -1.697941        -4.856515
 H         3.459345        -1.655751        -4.576536
 H         2.959118         1.637133        -3.442580
 H         1.959326         0.845602        -4.820301
 H         0.211549         0.081856        -3.348786
 H         3.127672         1.708567        -1.092370
 H         4.306832        -0.432071        -2.052597
 H         3.006769        -1.412207        -1.452810
 H         2.007132        -0.807815         0.332324
