19
Iteration:   717
 C         2.486572        -1.651457        -4.055763
 C         2.461971        -0.440790        -3.164422
 C         2.310640         1.002041        -3.895318
 C         1.188458         0.372943        -3.015300
 O         1.057438         0.817036        -1.699420
 C         2.270086         0.605752        -1.027680
 C         3.178025        -0.458462        -1.720389
 C         1.978181         0.558667         0.490527
 O         2.764842         0.535609         1.420158
 H         1.842268        -2.450414        -3.476389
 H         2.054573        -1.456430        -5.134216
 H         3.377306        -2.211069        -4.020332
 H         3.034478         1.796494        -3.609727
 H         2.130459         0.863469        -4.994526
 H         0.260310         0.082301        -3.546342
 H         2.934951         1.508255        -0.967192
 H         4.218987        -0.159707        -1.817918
 H         3.180509        -1.432454        -1.234185
 H         0.947547         0.694831         0.597019
