19
Iteration:  1957charge 0 multiplicity 1
 C         2.651569        -1.723753        -3.758929
 C         2.409680        -0.335610        -3.189629
 C         2.112753         0.934792        -4.034770
 C         1.105484         0.386997        -2.916149
 O         1.071383         0.964789        -1.673734
 C         2.343787         0.772271        -1.011810
 C         3.107932        -0.279749        -1.817119
 C         2.129380         0.141849         0.339043
 O         2.729112         0.533469         1.376160
 H         3.706126        -1.742255        -4.177191
 H         2.418582        -2.397064        -2.963293
 H         2.013715        -2.168456        -4.585238
 H         2.681940         1.797004        -3.990094
 H         1.889728         0.729345        -5.142127
 H         0.183026         0.073331        -3.345537
 H         2.942403         1.739498        -0.859799
 H         4.186246        -0.034603        -1.956127
 H         3.106306        -1.308340        -1.380185
 H         1.358149        -0.669490         0.498597
