19
Iteration:  2665
 C         2.519456        -1.744137        -3.913197
 C         2.479253        -0.440738        -3.086878
 C         2.104624         0.814751        -3.947323
 C         1.103089         0.301890        -2.900430
 O         1.135155         1.064270        -1.735253
 C         2.326912         0.819792        -0.990749
 C         3.301029        -0.203653        -1.853037
 C         2.004445         0.318642         0.373119
 O         2.707924         0.404521         1.390741
 H         3.485714        -1.681892        -4.552807
 H         2.760349        -2.684582        -3.205656
 H         1.584932        -1.721202        -4.621191
 H         2.648646         1.710258        -3.631479
 H         1.694068         0.673745        -4.977780
 H         0.104792        -0.107053        -3.184278
 H         2.914053         1.755352        -0.845868
 H         4.271989         0.281600        -2.224865
 H         3.443010        -1.041567        -1.122827
 H         1.162204        -0.337491         0.366339
