19
Iteration:  4917
 C         2.385070        -1.710393        -3.857980
 C         2.477936        -0.399157        -3.137993
 C         2.327539         0.886628        -3.948162
 C         1.186110         0.384765        -3.003748
 O         1.030666         0.857363        -1.650160
 C         2.378007         0.811292        -1.067387
 C         3.110601        -0.238331        -1.809328
 C         2.093598         0.288457         0.411979
 O         2.753376         0.525705         1.399316
 H         3.345176        -2.201319        -4.074439
 H         1.743900        -2.416789        -3.380331
 H         2.027246        -1.474652        -4.862505
 H         2.907433         1.784377        -3.857815
 H         2.008223         0.592016        -4.941888
 H         0.328914        -0.067214        -3.462589
 H         2.802586         1.852291        -0.806450
 H         4.245822        -0.107282        -1.939722
 H         2.889369        -1.224637        -1.374122
 H         1.277667        -0.396328         0.334219
