19
Iteration:  4277
 C         2.510470        -1.736849        -3.974068
 C         2.415931        -0.436597        -3.239495
 C         2.111919         0.852530        -3.901673
 C         1.090023         0.408648        -2.899868
 O         1.253062         1.031680        -1.626639
 C         2.459821         0.663875        -0.975228
 C         3.190179        -0.312596        -1.838891
 C         2.030345         0.222918         0.382112
 O         2.618154         0.647618         1.341035
 H         3.468756        -1.661328        -4.498963
 H         2.640098        -2.635393        -3.354595
 H         1.671010        -1.787832        -4.684736
 H         2.710340         1.747191        -3.613265
 H         1.796236         0.774427        -4.896968
 H         0.167544         0.025708        -3.103648
 H         3.138402         1.440455        -0.664842
 H         4.247869        -0.221790        -1.731933
 H         3.035428        -1.394487        -1.464816
 H         1.106393        -0.342971         0.610895
