19
Iteration:  2933charge 0 multiplicity 1
 C         2.636254        -1.631880        -4.002623
 C         2.433869        -0.385376        -3.172336
 C         2.276540         0.955989        -3.698359
 C         1.131130         0.232436        -3.040582
 O         0.904396         0.726244        -1.650924
 C         2.212579         0.771904        -1.037260
 C         3.070210        -0.322273        -1.740641
 C         2.054666         0.477138         0.449131
 O         2.971668         0.522564         1.216219
 H         3.572865        -2.084117        -3.896091
 H         1.819233        -2.310889        -3.806648
 H         2.474272        -1.499900        -5.060674
 H         2.663073         1.810172        -3.134087
 H         2.297050         1.129923        -4.811856
 H         0.169272         0.027124        -3.530332
 H         2.746353         1.694733        -1.204192
 H         4.142969        -0.202989        -1.774332
 H         2.927065        -1.254340        -1.243178
 H         1.014782         0.272046         0.989110
