19
Iteration:  4115
 C         2.649146        -1.619095        -4.042614
 C         2.421491        -0.452078        -3.086045
 C         2.267470         0.846978        -3.756452
 C         1.076311         0.384231        -2.995868
 O         0.942139         1.004767        -1.717236
 C         2.227508         0.678828        -1.004143
 C         3.109899        -0.531339        -1.793249
 C         1.985161         0.442506         0.504995
 O         2.964428         0.552547         1.256629
 H         3.636113        -1.517482        -4.371725
 H         2.561942        -2.701592        -3.769163
 H         1.872418        -1.576514        -4.877039
 H         2.681689         1.628480        -3.262898
 H         2.395041         0.659076        -4.845918
 H         0.083394         0.179370        -3.378388
 H         2.890897         1.548493        -0.967628
 H         4.158998        -0.335364        -1.892991
 H         3.105097        -1.566029        -1.411501
 H         0.889762         0.511991         0.890421
