19
Iteration:  1733charge 0 multiplicity 1
 C         2.532784        -1.791201        -3.893697
 C         2.486522        -0.421527        -3.188272
 C         2.263127         0.920339        -3.922776
 C         1.172521         0.399392        -2.946659
 O         0.975548         0.737927        -1.664551
 C         2.194010         0.862684        -1.044170
 C         3.177194        -0.106146        -1.808981
 C         2.052580         0.387681         0.402481
 O         2.856954         0.404967         1.383466
 H         3.566622        -2.123682        -4.033167
 H         2.165165        -2.601627        -3.132502
 H         1.921925        -1.809398        -4.793292
 H         2.951041         1.687443        -3.676134
 H         1.840321         0.979380        -4.993959
 H         0.213925         0.095884        -3.341594
 H         2.611696         1.932397        -1.184889
 H         4.041484         0.529069        -1.919962
 H         3.389693        -1.143126        -1.515655
 H         1.059994        -0.109923         0.579903
