19
Iteration:   636charge 0 multiplicity 1
 C         2.676872        -1.747704        -3.685435
 C         2.415441        -0.356607        -3.065537
 C         2.417828         0.928261        -3.871382
 C         1.191331         0.414296        -3.042555
 O         0.942307         1.068182        -1.802540
 C         2.165830         0.800819        -0.938882
 C         2.846814        -0.357366        -1.726988
 C         1.963308         0.298545         0.473544
 O         2.988975         0.332988         1.052871
 H         2.249912        -2.538142        -3.087955
 H         2.158161        -2.006494        -4.578482
 H         3.859097        -1.699548        -4.060004
 H         3.001368         1.751692        -3.660670
 H         2.441880         0.668379        -4.940543
 H         0.304891         0.128488        -3.712713
 H         2.934419         1.623839        -0.771155
 H         3.892555        -0.032747        -1.774008
 H         2.776256        -1.237258        -1.245771
 H         0.974210        -0.092496         0.765673
