19
Iteration:  1142
 C         2.533974        -1.701206        -3.918567
 C         2.422156        -0.354920        -3.222985
 C         2.199708         0.973227        -3.928305
 C         1.151252         0.359824        -3.005915
 O         1.002168         0.702057        -1.624939
 C         2.413478         0.825030        -1.040698
 C         3.122826        -0.328526        -1.823027
 C         2.070139         0.410981         0.414552
 O         2.839814         0.507379         1.426190
 H         3.441590        -2.097912        -3.669767
 H         1.694557        -2.308153        -3.550273
 H         2.643523        -1.604315        -5.038607
 H         2.670168         1.822299        -3.586551
 H         1.889140         0.748144        -4.980148
 H         0.088021         0.089064        -3.443855
 H         2.773868         1.893802        -1.073603
 H         4.195857        -0.344954        -1.749288
 H         2.835406        -1.190225        -1.274816
 H         0.964642         0.168559         0.512845
