19
Iteration:  3153
 C         2.682560        -1.760661        -3.644606
 C         2.530960        -0.432147        -3.027015
 C         1.987824         0.786064        -3.846380
 C         1.114579         0.221854        -2.883870
 O         0.950608         1.096070        -1.729258
 C         2.252297         0.916492        -1.056501
 C         3.336099         0.120515        -1.819766
 C         2.026382         0.514159         0.336172
 O         2.836758        -0.100168         1.023706
 H         3.631325        -2.316053        -3.626012
 H         2.062835        -2.579093        -3.246261
 H         2.436227        -1.555213        -4.677924
 H         2.384221         1.740131        -3.653687
 H         1.707478         0.536302        -4.949680
 H         0.169376        -0.339659        -3.121845
 H         2.624245         1.965810        -0.819153
 H         4.106626         0.815357        -2.210003
 H         3.664664        -0.588109        -1.102478
 H         1.072126         0.719220         0.650808
