19
Iteration:  4999charge 0 multiplicity 1
 C         2.552118        -1.670312        -4.057806
 C         2.428144        -0.493394        -3.114662
 C         2.325916         0.875454        -3.849590
 C         1.211729         0.392514        -3.078036
 O         1.018357         0.879163        -1.722825
 C         2.239635         0.838219        -1.043155
 C         2.932063        -0.449820        -1.670895
 C         2.078548         0.440198         0.514404
 O         2.940400         0.523769         1.324782
 H         3.563953        -1.600261        -4.565947
 H         2.384301        -2.668453        -3.453400
 H         1.677867        -1.633018        -4.763101
 H         2.751291         1.882951        -3.466424
 H         2.212885         0.817249        -4.946856
 H         0.239911         0.269805        -3.473381
 H         2.631886         1.875601        -0.829137
 H         3.987623        -0.539693        -1.503319
 H         2.532550        -1.401800        -1.147700
 H         1.093251         0.100027         0.775085
