19
Iteration:   496charge 0 multiplicity 1
 C         2.739295        -1.693424        -3.913389
 C         2.437177        -0.458982        -3.088366
 C         2.305887         0.916301        -3.788684
 C         1.156639         0.347842        -2.959392
 O         0.954798         0.881832        -1.712894
 C         2.254433         0.761082        -1.012514
 C         3.020044        -0.373498        -1.678011
 C         1.999661         0.821480         0.427428
 O         2.819021         0.167279         1.100041
 H         2.253674        -2.564418        -3.406185
 H         2.216660        -1.670938        -4.884138
 H         3.741624        -1.788262        -4.112571
 H         2.973605         1.701723        -3.475482
 H         2.092900         0.968142        -4.843852
 H         0.179550         0.023735        -3.478798
 H         2.851553         1.610802        -1.295572
 H         4.161431        -0.276033        -1.576421
 H         2.716288        -1.355316        -1.144013
 H         1.096193         1.446548         0.834934
