19
Iteration:  3208
 C         2.724245        -1.806174        -3.456858
 C         2.429178        -0.344491        -3.096173
 C         2.003981         0.876688        -4.028225
 C         1.110270         0.351352        -2.924772
 O         0.969851         0.954840        -1.700754
 C         2.261839         0.927210        -1.057617
 C         3.334137         0.118838        -1.867686
 C         2.098846         0.482292         0.344882
 O         2.762979        -0.151325         1.066310
 H         3.522871        -1.740496        -4.174999
 H         2.843037        -2.373401        -2.536024
 H         1.982701        -2.347685        -4.044529
 H         2.641831         1.818660        -3.997941
 H         1.542373         0.561305        -4.955782
 H         0.200466        -0.225887        -3.134737
 H         2.439370         1.976471        -0.872674
 H         4.266887         0.571438        -2.041248
 H         3.673521        -0.713718        -1.324615
 H         1.232888         1.072658         0.919243
