19
Iteration:  2416charge 0 multiplicity 1
 C         2.555010        -1.622083        -3.970466
 C         2.525451        -0.428805        -3.026975
 C         2.235733         0.810567        -3.759203
 C         1.198073         0.195572        -2.943821
 O         0.921716         0.753628        -1.632307
 C         2.277653         0.915921        -1.105445
 C         3.172178        -0.266137        -1.706727
 C         2.065116         0.839178         0.367276
 O         2.785732         0.154249         1.150364
 H         3.600431        -1.878293        -4.175051
 H         2.001629        -2.400779        -3.481543
 H         2.170151        -1.415592        -4.975426
 H         2.624378         1.852749        -3.572057
 H         2.052236         0.705289        -4.847467
 H         0.221946        -0.117776        -3.264952
 H         2.696277         1.934182        -1.235926
 H         4.242545        -0.049177        -1.790704
 H         3.145931        -1.202605        -1.204785
 H         1.198273         1.439243         0.665917
