19
Iteration:  2839
 C         2.575215        -1.572685        -4.175150
 C         2.421578        -0.445138        -3.097358
 C         2.262943         0.877199        -3.790990
 C         1.209809         0.244504        -2.907429
 O         0.984128         0.866811        -1.646738
 C         2.315753         0.668904        -0.990245
 C         3.046028        -0.428433        -1.735884
 C         2.114950         0.336073         0.421957
 O         2.780607         0.764660         1.295444
 H         3.589994        -1.309345        -4.593071
 H         2.453035        -2.598822        -3.828063
 H         1.738983        -1.527374        -4.908853
 H         2.598347         1.704650        -3.209028
 H         2.264048         0.976761        -4.861697
 H         0.255633        -0.002980        -3.311748
 H         2.794814         1.685525        -1.058669
 H         4.177643        -0.409481        -1.925306
 H         2.844356        -1.455424        -1.290308
 H         1.315910        -0.580772         0.576880
