19
Iteration:  2879charge 0 multiplicity 1
 C         2.631553        -1.622673        -4.052981
 C         2.403685        -0.404178        -3.173884
 C         2.366227         1.005679        -3.767443
 C         1.137195         0.402841        -3.001804
 O         0.932144         0.662259        -1.605555
 C         2.185636         0.702284        -1.040687
 C         2.975656        -0.450954        -1.769930
 C         2.064725         0.392770         0.536574
 O         2.946659         0.706757         1.250310
 H         3.615212        -1.646371        -4.573873
 H         2.540173        -2.586729        -3.550227
 H         1.986718        -1.521660        -4.924419
 H         3.004051         1.788661        -3.416061
 H         2.237204         1.052956        -4.912992
 H         0.316699        -0.175151        -3.520190
 H         2.773874         1.619169        -1.264500
 H         4.079199        -0.405713        -1.690895
 H         2.678660        -1.379341        -1.341241
 H         1.154290        -0.212210         0.788329
