19
Iteration:  1662
 C         2.687977        -1.821425        -3.836095
 C         2.371073        -0.388168        -3.271826
 C         2.028188         0.819709        -4.138452
 C         1.018778         0.417786        -2.913685
 O         1.165734         1.079795        -1.648676
 C         2.368338         0.835564        -0.969334
 C         3.231317        -0.161531        -1.869871
 C         2.220379         0.172642         0.422620
 O         2.587282         0.439295         1.507145
 H         3.734410        -1.753640        -4.196675
 H         2.633880        -2.554797        -3.129063
 H         1.977704        -2.027994        -4.616672
 H         2.617465         1.680507        -4.002506
 H         1.557459         0.564387        -5.148436
 H         0.113740        -0.077059        -3.126292
 H         2.818345         1.785471        -0.712123
 H         4.278155         0.208452        -2.018109
 H         3.170046        -1.123155        -1.364981
 H         1.558611        -0.749099         0.168559
