19
Iteration:  2910
 C         2.645904        -1.689385        -3.913024
 C         2.456330        -0.351978        -3.164439
 C         2.249614         1.164570        -3.831850
 C         1.180470         0.426325        -3.100777
 O         0.902772         0.640408        -1.683259
 C         2.164295         0.565458        -1.052029
 C         3.026956        -0.463533        -1.738977
 C         2.047482         0.453037         0.524026
 O         3.021742         0.631243         1.279293
 H         3.642657        -1.965668        -4.005648
 H         2.003682        -2.496392        -3.549379
 H         2.245770        -1.576214        -4.912976
 H         2.798965         2.038399        -3.551361
 H         1.907254         1.136703        -4.926913
 H         0.273466        -0.042093        -3.543389
 H         2.718582         1.488294        -1.224989
 H         4.048099        -0.220746        -1.587026
 H         2.908429        -1.492000        -1.409370
 H         1.037632         0.270801         1.160750
