19
Iteration:   654charge 0 multiplicity 1
 C         2.624437        -1.755804        -3.651741
 C         2.406037        -0.369250        -3.068349
 C         2.449881         0.918279        -3.820363
 C         1.182570         0.511232        -3.158709
 O         0.909839         0.974467        -1.799227
 C         2.053424         0.815037        -1.031523
 C         2.982012        -0.321747        -1.627577
 C         2.051860         0.323450         0.388833
 O         3.013927         0.306389         1.080734
 H         2.110470        -2.520226        -3.030312
 H         2.295570        -1.838520        -4.688090
 H         3.657681        -1.948075        -3.778241
 H         2.991852         1.782169        -3.388127
 H         2.364311         1.006065        -4.923266
 H         0.137762         0.289436        -3.556591
 H         2.605512         1.728312        -1.137588
 H         4.049126        -0.213706        -1.449739
 H         2.518310        -1.279455        -1.099745
 H         1.114026        -0.210094         0.828126
