19
Iteration:  4738
 C         2.413415        -1.770859        -3.753956
 C         2.442285        -0.412001        -3.175091
 C         2.257794         0.982278        -3.913435
 C         1.163590         0.333468        -3.012333
 O         1.086591         0.945538        -1.669314
 C         2.420902         0.908259        -1.105678
 C         3.133122        -0.290575        -1.876393
 C         2.168871         0.223356         0.305381
 O         2.634460         0.502645         1.492451
 H         3.362470        -2.151769        -3.954130
 H         1.946724        -2.602453        -3.242553
 H         1.930752        -1.780617        -4.716969
 H         2.914462         1.841167        -3.679075
 H         2.311462         0.815272        -5.060951
 H         0.059931        -0.023561        -3.141980
 H         2.951892         1.912476        -1.090268
 H         4.193179        -0.178980        -2.036378
 H         2.931905        -1.264580        -1.414945
 H         1.483464        -0.672214         0.213933
