19
Iteration:  4496charge 0 multiplicity 1
 C         2.537853        -1.694381        -3.977357
 C         2.411570        -0.504261        -3.150310
 C         2.331760         0.887345        -3.950096
 C         1.164802         0.418740        -3.033905
 O         0.914914         0.838445        -1.688378
 C         2.233294         0.787294        -1.012719
 C         3.081424        -0.354054        -1.761206
 C         2.061632         0.532426         0.530787
 O         2.937251         0.444978         1.401710
 H         3.560601        -1.709904        -4.344381
 H         2.200201        -2.703503        -3.654999
 H         2.008788        -1.417524        -4.952821
 H         3.137907         1.490187        -3.681730
 H         2.376676         0.821333        -5.057066
 H         0.210119         0.079135        -3.557753
 H         2.790447         1.764055        -1.175939
 H         4.105087        -0.267477        -1.633097
 H         2.766561        -1.257792        -1.210528
 H         0.965467         0.529668         0.782410
