19
Iteration:  4266
 C         2.503017        -1.714971        -3.943977
 C         2.451262        -0.370953        -3.224571
 C         2.103327         0.928315        -3.905439
 C         1.163016         0.333134        -2.879643
 O         1.211817         0.996239        -1.647451
 C         2.509427         0.740297        -1.014516
 C         3.177418        -0.437913        -1.899581
 C         1.997550         0.248744         0.397613
 O         2.639970         0.635001         1.425100
 H         3.389734        -1.850636        -4.563548
 H         2.493869        -2.460713        -3.125913
 H         1.723415        -2.040618        -4.663298
 H         2.603769         1.907264        -3.797308
 H         1.736983         0.830843        -4.887709
 H         0.217720         0.072706        -3.163009
 H         2.891188         1.739039        -0.932268
 H         4.244923        -0.420203        -1.933575
 H         2.702273        -1.328350        -1.366408
 H         1.138719        -0.513784         0.300219
