19
Iteration:  3280
 C         2.627831        -1.666047        -3.666668
 C         2.510317        -0.281024        -3.027354
 C         1.983101         0.642506        -4.026858
 C         1.157432         0.139063        -2.827626
 O         1.085024         1.037996        -1.762248
 C         2.279215         1.067242        -0.997057
 C         3.310537         0.156788        -1.802359
 C         2.000729         0.548494         0.442333
 O         2.734109        -0.177263         0.999790
 H         3.603375        -1.763180        -4.262943
 H         2.591329        -2.454958        -2.853371
 H         1.860849        -1.979163        -4.364357
 H         2.271111         1.642902        -3.885727
 H         1.859817         0.213869        -5.060974
 H         0.289770        -0.550100        -2.947126
 H         2.709933         2.116835        -0.801904
 H         4.440664         0.388953        -1.936224
 H         3.403896        -0.784931        -1.120979
 H         1.057455         0.845299         0.947191
