19
Iteration:   581charge 0 multiplicity 1
 C         2.497033        -1.627599        -3.962156
 C         2.452521        -0.408281        -3.166929
 C         2.267196         0.838824        -3.905457
 C         1.206588         0.293186        -2.907038
 O         1.132516         0.861140        -1.659611
 C         2.391624         0.815851        -1.070996
 C         3.186230        -0.342846        -1.846225
 C         1.970980         0.573681         0.440678
 O         2.616714         0.341212         1.381533
 H         2.394628        -2.478688        -3.280054
 H         1.860585        -1.634592        -4.821107
 H         3.601576        -1.818367        -4.459308
 H         2.761877         1.638425        -3.422327
 H         2.182254         0.859050        -4.982611
 H         0.179389        -0.050838        -3.274789
 H         2.964479         1.793523        -1.164727
 H         4.247595        -0.113420        -1.840988
 H         2.979104        -1.188096        -1.287955
 H         0.798791         0.777425         0.666113
