19
Iteration:   634charge 0 multiplicity 1
 C         2.681441        -1.762612        -3.696972
 C         2.411048        -0.353209        -3.074815
 C         2.418600         0.914646        -3.866696
 C         1.197994         0.406220        -3.043140
 O         0.958223         1.079497        -1.794951
 C         2.159886         0.801135        -0.925681
 C         2.864436        -0.344993        -1.740302
 C         1.942169         0.309115         0.468888
 O         2.981619         0.330930         1.068368
 H         2.338652        -2.555449        -3.125603
 H         2.193058        -1.944605        -4.584361
 H         3.773719        -1.699497        -4.118206
 H         2.976828         1.799614        -3.699800
 H         2.356510         0.676013        -4.944065
 H         0.236490         0.101912        -3.666497
 H         2.918930         1.584407        -0.835677
 H         3.891602        -0.055969        -1.797768
 H         2.718638        -1.292643        -1.217427
 H         1.074503        -0.076544         0.813288
