19
Iteration:  3628charge 0 multiplicity 1
 C         2.654848        -1.611706        -4.099198
 C         2.390305        -0.466333        -3.151494
 C         2.267531         0.945549        -3.787793
 C         1.127670         0.423861        -2.997656
 O         0.906060         0.661137        -1.591503
 C         2.271112         0.572021        -1.046336
 C         3.113075        -0.389527        -1.797279
 C         2.040575         0.498285         0.499226
 O         2.912144         0.689247         1.313941
 H         3.770919        -1.866823        -4.076278
 H         2.102996        -2.486408        -3.749840
 H         2.320152        -1.432557        -5.140194
 H         2.855915         1.691274        -3.403952
 H         2.196521         1.062014        -4.898347
 H         0.168604         0.209787        -3.413483
 H         2.672305         1.589137        -1.271852
 H         4.217903        -0.237031        -1.756279
 H         2.888595        -1.422161        -1.407719
 H         0.957243         0.361078         0.794015
