19
Iteration:   378charge 0 multiplicity 1
 C         2.405118        -1.720948        -3.981866
 C         2.532752        -0.444415        -3.148032
 C         2.296316         0.871004        -3.921384
 C         1.262144         0.307104        -2.965250
 O         1.078120         0.875467        -1.596782
 C         2.343618         0.837395        -1.036866
 C         3.230650        -0.267060        -1.839637
 C         1.980388         0.361038         0.386253
 O         2.652185         0.525991         1.423378
 H         1.719318        -2.477122        -3.609971
 H         1.821558        -1.511594        -4.955296
 H         3.404127        -2.016935        -4.283459
 H         2.914277         1.737870        -3.638414
 H         1.930682         0.886481        -4.905550
 H         0.266297        -0.123018        -3.341379
 H         2.894673         1.834521        -1.018425
 H         4.275498         0.060934        -1.832450
 H         3.200811        -1.231113        -1.371668
 H         0.904290        -0.168397         0.483798
