19
Iteration:  4442
 C         2.563343        -1.712696        -3.945030
 C         2.466898        -0.428685        -3.167746
 C         2.225666         0.955808        -3.843593
 C         1.119104         0.354179        -2.908696
 O         1.105009         0.997150        -1.700855
 C         2.382181         0.770419        -1.025922
 C         3.028013        -0.432917        -1.729972
 C         2.065837         0.395304         0.365761
 O         2.771005         0.494972         1.279722
 H         3.552484        -1.892334        -4.391485
 H         2.479569        -2.514959        -3.146459
 H         1.696289        -1.954284        -4.684552
 H         2.349826         1.920547        -3.499467
 H         2.069763         0.778342        -4.902142
 H         0.096972        -0.091241        -3.209969
 H         3.112830         1.554462        -1.118050
 H         4.083732        -0.247196        -1.704128
 H         2.933016        -1.396154        -1.125770
 H         1.026713        -0.095821         0.243587
