19
Iteration:  3002
 C         2.714236        -1.699845        -3.752026
 C         2.502684        -0.313036        -3.227018
 C         2.070641         0.993575        -3.971343
 C         1.103406         0.255055        -3.022148
 O         0.963439         0.937500        -1.680699
 C         2.230965         0.710115        -1.037602
 C         3.160256        -0.266726        -1.870102
 C         1.999010         0.468608         0.503611
 O         2.930539         0.276014         1.325409
 H         3.787297        -1.794724        -4.017920
 H         2.403026        -2.373082        -3.013342
 H         2.162692        -2.132885        -4.569705
 H         2.556512         1.928349        -3.771355
 H         1.700931         1.016737        -4.980910
 H         0.200030        -0.189288        -3.445632
 H         2.704321         1.688266        -1.104592
 H         4.242261         0.058046        -1.765694
 H         3.256537        -1.187405        -1.346623
 H         0.934708         0.534456         0.879171
