19
Iteration:   628charge 0 multiplicity 1
 C         2.686753        -1.762569        -3.739021
 C         2.405694        -0.387841        -3.112407
 C         2.407390         0.882938        -3.876181
 C         1.176783         0.416195        -3.061076
 O         0.999826         1.096514        -1.775269
 C         2.130463         0.790590        -0.938654
 C         2.922585        -0.322603        -1.716088
 C         1.926265         0.344784         0.446974
 O         2.971375         0.323565         1.121128
 H         2.573763        -2.685025        -3.061011
 H         2.093052        -1.799222        -4.742208
 H         3.722873        -1.798773        -4.132682
 H         2.911725         1.852560        -3.681404
 H         2.168903         0.736342        -4.929592
 H         0.242045         0.134414        -3.417017
 H         2.828395         1.668272        -0.969686
 H         4.040888        -0.171879        -1.714759
 H         2.677485        -1.302334        -1.249887
 H         0.956074        -0.145380         0.975194
