19
Iteration:  2614
 C         2.573980        -1.788457        -3.677240
 C         2.477063        -0.337785        -3.070249
 C         2.162133         0.878110        -3.970099
 C         1.147968         0.418312        -2.987946
 O         1.000957         0.990481        -1.703159
 C         2.254975         0.862068        -1.013693
 C         3.188374        -0.164686        -1.835324
 C         2.051716         0.242347         0.375812
 O         2.832625         0.321449         1.231567
 H         3.615110        -1.997132        -3.753510
 H         2.219386        -2.490573        -2.975360
 H         1.996029        -1.927036        -4.563617
 H         2.852070         1.709976        -3.872218
 H         1.823817         0.572454        -5.050814
 H         0.249997         0.051437        -3.534059
 H         2.899387         1.721067        -0.984817
 H         4.159626         0.219248        -1.949107
 H         3.218232        -1.178662        -1.424280
 H         0.979512        -0.243625         0.459238
