19
Iteration:   580
 C         2.491369        -1.631734        -3.967084
 C         2.457632        -0.406206        -3.176228
 C         2.256658         0.841091        -3.903974
 C         1.202259         0.295238        -2.908945
 O         1.130816         0.855635        -1.661006
 C         2.400975         0.813650        -1.061163
 C         3.196908        -0.339958        -1.839689
 C         1.969806         0.573705         0.440195
 O         2.610099         0.344863         1.379601
 H         2.407128        -2.472226        -3.295626
 H         1.856811        -1.613876        -4.808064
 H         3.599112        -1.838070        -4.446369
 H         2.799065         1.637636        -3.400593
 H         2.179535         0.852296        -4.976738
 H         0.179414        -0.044510        -3.265961
 H         2.973523         1.772410        -1.175807
 H         4.244710        -0.124770        -1.839057
 H         3.009322        -1.200332        -1.286058
 H         0.812743         0.809909         0.664589
