19
Iteration:  1137
 C         2.559204        -1.681414        -3.906816
 C         2.427573        -0.354040        -3.254121
 C         2.178141         0.970165        -3.948854
 C         1.114639         0.324096        -2.953642
 O         1.022310         0.746635        -1.635832
 C         2.402271         0.776181        -1.046309
 C         3.118076        -0.318382        -1.790449
 C         2.084316         0.465031         0.426243
 O         2.817610         0.481823         1.402371
 H         3.556822        -2.228137        -3.538549
 H         1.768751        -2.374599        -3.573082
 H         2.487684        -1.531310        -4.992403
 H         2.614158         1.975166        -3.569893
 H         1.934366         0.864463        -4.989037
 H         0.259044         0.017272        -3.413041
 H         2.954068         1.743531        -1.131521
 H         4.240475        -0.348035        -1.824068
 H         2.784781        -1.342120        -1.371152
 H         0.978628         0.131196         0.491964
