19
Iteration:  1118
 C         2.632995        -1.686327        -3.931613
 C         2.480124        -0.378238        -3.161756
 C         2.039307         0.961260        -3.876248
 C         1.128872         0.286256        -2.962743
 O         1.102700         0.971565        -1.685857
 C         2.328668         0.702808        -1.043434
 C         3.108766        -0.443409        -1.813562
 C         2.013144         0.474180         0.436474
 O         2.836838         0.440801         1.328248
 H         3.683599        -1.972338        -3.867130
 H         2.030944        -2.424009        -3.405738
 H         2.418507        -1.567095        -5.047297
 H         2.475359         1.872546        -3.416579
 H         1.889859         0.759674        -4.937093
 H         0.231102        -0.215710        -3.122460
 H         2.948684         1.679559        -1.050870
 H         4.159718        -0.138963        -1.740639
 H         3.110435        -1.358785        -1.399168
 H         0.864653         0.512339         0.604232
