19
Iteration:  4466
 C         2.639718        -1.713317        -3.894008
 C         2.382102        -0.472260        -3.217780
 C         2.193411         0.974154        -3.885173
 C         1.115809         0.375391        -2.967166
 O         1.072105         0.954677        -1.710423
 C         2.364804         0.714949        -0.978988
 C         3.061010        -0.440408        -1.824390
 C         1.984291         0.468056         0.475546
 O         2.854336         0.489426         1.314466
 H         3.615725        -1.705247        -4.379823
 H         2.580935        -2.685236        -3.282641
 H         1.815890        -1.788904        -4.680481
 H         2.856365         1.664452        -3.446935
 H         1.992378         0.930897        -4.923899
 H         0.159775         0.279649        -3.419876
 H         3.059421         1.525041        -0.933037
 H         4.176796        -0.447122        -1.746279
 H         2.804685        -1.427316        -1.243455
 H         0.848351         0.415970         0.556422
