19
Iteration:   471
 C         2.752985        -1.676062        -3.815209
 C         2.411263        -0.461100        -3.013130
 C         2.335073         0.902136        -3.748345
 C         1.121643         0.315998        -3.083206
 O         0.893991         0.980447        -1.809728
 C         2.137242         0.907917        -1.074967
 C         2.883505        -0.367725        -1.581505
 C         2.077681         0.651204         0.427944
 O         2.985661         0.099846         1.064860
 H         2.432328        -2.525529        -3.252103
 H         2.348909        -1.817607        -4.762865
 H         3.896990        -1.504860        -3.997757
 H         3.017102         1.766643        -3.487395
 H         2.452238         0.873654        -4.817472
 H         0.265131        -0.039838        -3.639732
 H         2.802161         1.724820        -1.368331
 H         3.960078        -0.227074        -1.442535
 H         2.575104        -1.157421        -0.927173
 H         1.162176         1.085352         0.925120
