19
Iteration:  2563charge 0 multiplicity 1
 C         2.529443        -1.812135        -3.745284
 C         2.465637        -0.347899        -3.123532
 C         2.278809         0.875859        -3.987627
 C         1.179793         0.387374        -2.979264
 O         0.911953         0.880346        -1.701649
 C         2.196388         0.851928        -1.064854
 C         3.211047        -0.089528        -1.769598
 C         2.036722         0.377955         0.396239
 O         2.910650         0.256520         1.285445
 H         3.640115        -2.217196        -3.839805
 H         1.927055        -2.448391        -3.057144
 H         1.822781        -1.876925        -4.567936
 H         2.752800         1.739393        -3.669707
 H         2.040191         0.860085        -5.078442
 H         0.299775         0.065944        -3.536752
 H         2.653711         1.878184        -1.099514
 H         4.213462         0.399874        -1.904774
 H         3.407058        -1.117381        -1.310585
 H         0.934455         0.339902         0.671088
