19
Iteration:  2206
 C         2.496896        -1.801115        -3.743346
 C         2.492893        -0.441090        -3.040436
 C         2.099472         0.735953        -3.844771
 C         1.123986         0.326489        -2.853987
 O         1.101134         1.186015        -1.738751
 C         2.363714         0.885052        -1.034245
 C         3.333361         0.014099        -1.808195
 C         2.053796         0.105202         0.180367
 O         2.648589         0.340954         1.275981
 H         3.415989        -1.972421        -4.256852
 H         2.334683        -2.702003        -3.124226
 H         1.916021        -1.842988        -4.687738
 H         2.543733         1.880005        -3.896950
 H         1.695304         0.542915        -4.844438
 H         0.284458        -0.228920        -3.224152
 H         2.609670         1.937312        -0.753393
 H         4.275720         0.455159        -2.321615
 H         3.621241        -0.861579        -1.288124
 H         1.361627        -0.783825         0.202223
