19
Iteration:  1909charge 0 multiplicity 1
 C         2.563938        -1.694079        -4.053893
 C         2.443611        -0.488743        -3.118071
 C         2.265879         0.847254        -3.882975
 C         1.212822         0.336161        -2.967775
 O         0.958946         0.864829        -1.616330
 C         2.221269         0.820555        -0.959483
 C         3.138516        -0.276278        -1.767187
 C         2.045800         0.370578         0.455560
 O         2.837502         0.566221         1.280776
 H         3.553940        -1.725974        -4.393489
 H         2.149817        -2.715877        -3.758223
 H         2.045602        -1.443178        -4.938327
 H         2.849176         1.831383        -3.688808
 H         2.073228         0.891373        -4.922275
 H         0.320891        -0.183568        -3.448616
 H         2.705158         1.758153        -0.845362
 H         4.191674         0.044773        -1.730273
 H         3.125207        -1.266687        -1.308449
 H         1.163393        -0.326842         0.597232
