19
Iteration:  2443
 C         2.639545        -1.653215        -3.977123
 C         2.492921        -0.434281        -3.081566
 C         2.129712         0.919052        -3.776045
 C         1.176431         0.183097        -2.984802
 O         0.984636         0.750752        -1.738740
 C         2.310667         0.821192        -1.066056
 C         3.048677        -0.291976        -1.640530
 C         2.173180         0.902957         0.455691
 O         2.759324         0.165393         1.151427
 H         3.716396        -1.713293        -4.237816
 H         2.134819        -2.518856        -3.453430
 H         2.089955        -1.667687        -4.936501
 H         2.479147         1.772664        -3.301669
 H         2.018584         1.068641        -4.868164
 H         0.177608        -0.268857        -3.148553
 H         2.832263         1.802813        -1.236009
 H         4.147606        -0.118251        -1.537920
 H         3.060135        -1.307929        -1.096976
 H         1.409824         1.655633         0.714764
