19
Iteration:  3911charge 0 multiplicity 1
 C         2.521068        -1.765301        -3.971626
 C         2.389712        -0.460094        -3.095858
 C         2.223970         0.735486        -3.993284
 C         1.176252         0.394311        -2.930500
 O         1.029219         0.999289        -1.612090
 C         2.253125         0.955896        -1.007522
 C         3.318736        -0.146888        -1.866879
 C         2.049582         0.344625         0.458940
 O         2.744037         0.302395         1.381800
 H         3.392437        -1.899710        -4.646192
 H         2.364109        -2.576576        -3.294367
 H         1.544552        -1.829525        -4.438961
 H         2.949021         1.540632        -4.050284
 H         2.110398         0.447339        -5.060127
 H         0.158830         0.173856        -3.380328
 H         2.666292         1.970786        -0.985897
 H         4.203318         0.539060        -1.927536
 H         3.627660        -0.930192        -1.220781
 H         1.045720        -0.217719         0.242377
