19
Iteration:  2659
 C         2.529037        -1.711387        -3.922893
 C         2.487547        -0.510560        -3.109559
 C         2.122656         0.794589        -3.918699
 C         1.126952         0.266607        -2.883383
 O         1.108401         1.100129        -1.763312
 C         2.336009         0.900076        -1.021630
 C         3.272733        -0.191940        -1.828197
 C         2.008554         0.273052         0.378675
 O         2.737503         0.387597         1.397059
 H         3.406191        -1.720071        -4.532232
 H         2.500459        -2.557174        -3.309159
 H         1.613912        -1.714884        -4.448257
 H         2.465037         1.788441        -3.638215
 H         1.881708         0.733502        -5.017098
 H         0.154803        -0.173493        -3.108251
 H         2.776842         1.890487        -0.900924
 H         4.209721         0.239389        -2.099082
 H         3.425524        -0.987382        -1.109413
 H         1.058330        -0.402754         0.354705
