19
Iteration:  2547
 C         2.461555        -1.662493        -3.771461
 C         2.533589        -0.390536        -3.104241
 C         2.249371         0.832170        -3.957965
 C         1.173979         0.266864        -3.032971
 O         1.006877         0.839353        -1.670154
 C         2.270361         0.935544        -0.989274
 C         3.171171        -0.135812        -1.721513
 C         1.937605         0.506468         0.396836
 O         2.904319         0.233219         1.166718
 H         3.453507        -1.968202        -4.093450
 H         2.106496        -2.543385        -3.224188
 H         1.836902        -1.516147        -4.693040
 H         2.769555         1.819642        -3.633248
 H         2.142010         0.477717        -4.988502
 H         0.254910        -0.271118        -3.260495
 H         2.638338         1.965200        -0.921553
 H         4.174366         0.240619        -1.802863
 H         3.142500        -0.992609        -1.098000
 H         0.960605         0.137636         0.594286
