19
Iteration:  3067charge 0 multiplicity 1
 C         2.592780        -1.742910        -3.828690
 C         2.482937        -0.430457        -3.068374
 C         2.082821         0.863146        -3.865937
 C         1.153646         0.191295        -2.929322
 O         1.050379         0.942165        -1.767106
 C         2.217244         0.903500        -1.029947
 C         3.240462         0.026035        -1.710576
 C         1.966416         0.496099         0.449179
 O         2.883119         0.064569         1.107973
 H         3.432838        -1.621946        -4.541128
 H         2.642967        -2.541549        -3.096590
 H         1.725183        -1.897134        -4.497908
 H         2.395635         1.829193        -3.577422
 H         1.994984         0.693708        -4.992631
 H         0.200727        -0.270368        -3.274483
 H         2.620718         1.935668        -0.879585
 H         4.186333         0.688145        -1.989837
 H         3.734336        -0.616587        -0.965174
 H         0.922243         0.737449         0.818603
