19
Iteration:  2962
 C         2.681787        -1.630085        -4.059775
 C         2.415780        -0.441306        -3.107784
 C         2.184831         0.863599        -3.831922
 C         1.161170         0.293713        -2.988266
 O         0.898106         0.804787        -1.607937
 C         2.206644         0.907579        -1.023286
 C         3.162006        -0.286748        -1.647531
 C         2.009629         0.504283         0.423073
 O         2.948163         0.384162         1.213428
 H         3.718318        -2.027567        -3.822230
 H         1.927608        -2.538486        -3.887045
 H         2.540139        -1.306319        -5.153949
 H         2.723927         1.720716        -3.568209
 H         2.025355         0.649298        -4.971058
 H         0.158229         0.061226        -3.402392
 H         2.814732         1.878684        -1.215775
 H         4.172318         0.035035        -1.829447
 H         3.035004        -1.355404        -1.096991
 H         1.105644         0.067070         0.751202
