19
Iteration:   646charge 0 multiplicity 1
 C         2.641880        -1.707914        -3.673652
 C         2.401628        -0.394347        -3.083464
 C         2.426163         0.941392        -3.867329
 C         1.174277         0.485744        -3.098514
 O         0.906662         1.016945        -1.811789
 C         2.132542         0.793727        -1.008554
 C         2.901091        -0.343385        -1.620468
 C         1.972708         0.279648         0.408504
 O         3.047935         0.324151         1.065360
 H         2.336376        -2.382002        -2.921248
 H         2.189970        -1.875693        -4.591659
 H         3.754044        -2.009559        -3.603571
 H         3.027471         1.668279        -3.422634
 H         2.554770         0.787052        -4.946673
 H         0.224659         0.247643        -3.700408
 H         2.635315         1.773967        -0.938307
 H         3.968351        -0.162821        -1.517662
 H         2.792445        -1.310043        -1.172520
 H         1.062640        -0.106719         0.725290
