19
Iteration:  4699charge 0 multiplicity 1
 C         2.408673        -1.830151        -3.892597
 C         2.417374        -0.409404        -3.116393
 C         2.293122         0.958071        -3.944096
 C         1.208647         0.420474        -2.929715
 O         1.091130         0.989464        -1.658575
 C         2.238597         0.717807        -0.965184
 C         3.247474        -0.248936        -1.875920
 C         2.020906         0.109501         0.380357
 O         2.746910         0.637474         1.315008
 H         3.523995        -2.111345        -4.036638
 H         1.826280        -2.568551        -3.228108
 H         1.741097        -1.656779        -4.764390
 H         3.040100         1.717988        -3.761515
 H         2.136061         0.644090        -5.005401
 H         0.366411         0.125937        -3.526270
 H         2.708287         1.696651        -0.767290
 H         4.354222         0.069027        -2.017354
 H         3.396288        -1.200911        -1.274918
 H         1.104858        -0.601553         0.664997
