19
Iteration:  4590charge 0 multiplicity 1
 C         2.600004        -1.715720        -3.997549
 C         2.377607        -0.473897        -3.153273
 C         2.380013         0.872845        -3.859434
 C         1.182784         0.390337        -3.008218
 O         0.957934         0.938525        -1.757603
 C         2.175555         0.807180        -1.045414
 C         2.909847        -0.372599        -1.739089
 C         2.017002         0.507633         0.582140
 O         3.026970         0.406053         1.337005
 H         3.744203        -1.712624        -4.152621
 H         2.357909        -2.666171        -3.452333
 H         2.277615        -1.812131        -5.025873
 H         2.941699         1.810663        -3.625149
 H         2.133589         0.605482        -4.953102
 H         0.213281         0.205050        -3.578055
 H         2.667475         1.771026        -1.092595
 H         4.059561        -0.172025        -1.749354
 H         2.771187        -1.359161        -1.229085
 H         0.987521         0.370465         0.901794
