19
Iteration:  1014
 C         2.373930        -1.777030        -3.686644
 C         2.564458        -0.341817        -3.144497
 C         2.347000         0.942038        -3.910989
 C         1.187574         0.470642        -3.035083
 O         0.906848         0.785223        -1.709561
 C         2.178335         0.810238        -1.044489
 C         3.185015        -0.144423        -1.777983
 C         2.002168         0.393976         0.435420
 O         2.941410         0.262542         1.185457
 H         2.879464        -1.889088        -4.725937
 H         3.153072        -2.465448        -3.218272
 H         1.509152        -2.169006        -3.321214
 H         2.813233         1.771384        -3.504499
 H         2.332007         1.035978        -4.990167
 H         0.251564         0.046144        -3.587334
 H         2.562697         1.872884        -1.041781
 H         4.066578         0.429697        -1.940925
 H         3.436583        -1.157374        -1.298336
 H         0.987127         0.251037         0.640972
