19
Iteration:  4295charge 0 multiplicity 1
 C         2.493642        -1.681518        -4.012988
 C         2.318437        -0.521997        -3.076863
 C         2.174306         0.862296        -3.940587
 C         1.153433         0.376969        -2.892903
 O         1.191256         1.098702        -1.678898
 C         2.425791         0.679883        -1.000843
 C         3.225487        -0.396093        -1.863491
 C         2.051049         0.210910         0.444192
 O         2.633097         0.638779         1.402565
 H         3.520021        -1.701370        -4.568296
 H         2.505043        -2.612962        -3.460074
 H         1.750521        -1.669827        -4.773007
 H         2.708038         1.802533        -3.754701
 H         1.966588         0.587284        -5.092184
 H         0.100446         0.153856        -3.231785
 H         2.915563         1.693749        -0.728955
 H         4.058421         0.216045        -2.298083
 H         3.526397        -1.275653        -1.356980
 H         1.276237        -0.606531         0.479192
