19
Iteration:    11charge 0 multiplicity 1
 C         2.754956        -1.792933        -3.779507
 C         2.512230        -0.374150        -3.095287
 C         2.153973         0.917018        -3.909548
 C         1.098391         0.354153        -2.964128
 O         0.946692         0.844176        -1.658015
 C         2.181583         0.911173        -1.058160
 C         3.147533        -0.165791        -1.741712
 C         1.994366         0.615128         0.380368
 O         2.863731         0.125915         1.141823
 H         2.524602        -2.751435        -3.273279
 H         2.314415        -1.828003        -4.716261
 H         3.779606        -1.663854        -3.991608
 H         2.841684         1.628335        -3.485765
 H         2.283691         0.848456        -4.970478
 H         0.147727         0.014902        -3.365980
 H         2.789597         1.885035        -1.147272
 H         4.168751         0.009479        -1.555099
 H         2.935905        -1.099862        -1.267124
 H         0.751822         0.593743         0.703953
