19
Iteration:  4935charge 0 multiplicity 1
 C         2.471073        -1.763470        -3.916229
 C         2.456766        -0.442635        -3.255484
 C         2.239823         0.948771        -3.921799
 C         1.168448         0.405349        -2.973800
 O         1.047788         0.865249        -1.669140
 C         2.305085         0.892422        -1.040027
 C         3.139237        -0.381795        -1.787776
 C         2.133524         0.408152         0.396738
 O         2.761067         0.472464         1.448238
 H         3.436473        -2.160189        -4.160931
 H         1.964009        -2.519570        -3.216688
 H         1.932544        -1.887350        -4.832536
 H         2.911097         1.775313        -3.451786
 H         2.130364         1.011113        -5.020547
 H         0.252507         0.222230        -3.439951
 H         2.846189         1.730538        -1.326228
 H         4.206846        -0.197740        -1.610241
 H         2.915908        -1.227212        -1.133049
 H         1.121615        -0.205476         0.372924
