19
Iteration:  3546
 C         2.746673        -1.765451        -3.755775
 C         2.405281        -0.388184        -3.186249
 C         2.114611         0.928038        -3.900936
 C         1.065818         0.457890        -3.059099
 O         0.943726         0.866178        -1.681600
 C         2.241937         0.813073        -0.985264
 C         3.114303        -0.204049        -1.774022
 C         2.058386         0.330583         0.446298
 O         2.919815         0.343117         1.211880
 H         3.774086        -1.801125        -4.149499
 H         2.906984        -2.611458        -2.994760
 H         2.235704        -2.292923        -4.607902
 H         2.868697         1.827382        -3.639032
 H         1.899332         0.857951        -4.968702
 H         0.081292         0.296175        -3.602422
 H         2.814789         1.751970        -0.923449
 H         4.138862         0.205106        -1.908284
 H         3.116496        -1.263462        -1.312533
 H         1.002624         0.358021         0.860949
