19
Iteration:   489charge 0 multiplicity 1
 C         2.765466        -1.692906        -3.873505
 C         2.434141        -0.454886        -3.057699
 C         2.339075         0.863006        -3.762445
 C         1.135010         0.338477        -3.012028
 O         0.916510         0.935483        -1.705783
 C         2.244880         0.761397        -1.040871
 C         2.981246        -0.367238        -1.648692
 C         2.035361         0.788303         0.433160
 O         2.846001         0.159342         1.049801
 H         2.337515        -2.588552        -3.366336
 H         2.237068        -1.596176        -4.896792
 H         3.850546        -1.890628        -4.233413
 H         2.686116         1.849456        -3.373267
 H         2.342659         0.997067        -4.908965
 H         0.172520         0.123735        -3.332146
 H         2.784696         1.768283        -1.170903
 H         4.038850        -0.251726        -1.612586
 H         2.635758        -1.355162        -1.294886
 H         1.114576         1.322727         0.885880
