19
Iteration:  4357
 C         2.396993        -1.724988        -3.675999
 C         2.454063        -0.345801        -3.224772
 C         2.225505         0.975632        -3.918768
 C         1.179532         0.443615        -3.017588
 O         1.114032         0.826760        -1.626987
 C         2.424544         0.700189        -1.072822
 C         3.218712        -0.293481        -1.898682
 C         2.106701         0.166725         0.294418
 O         2.643162         0.609704         1.370442
 H         3.292143        -2.169822        -3.977166
 H         1.656363        -2.227863        -3.015421
 H         1.781705        -1.690511        -4.633211
 H         2.831440         1.744032        -3.597301
 H         2.150765         1.045018        -5.000054
 H         0.073845         0.135951        -3.191683
 H         2.992056         1.624435        -0.913638
 H         4.299499         0.028643        -1.930109
 H         3.115824        -1.196633        -1.201058
 H         1.246546        -0.592436         0.395092
