19
Iteration:    70charge 0 multiplicity 1
 C         2.688553        -1.735532        -3.945708
 C         2.533214        -0.410527        -3.131145
 C         2.309403         0.954861        -3.869635
 C         1.212097         0.338680        -3.089350
 O         0.859173         0.882584        -1.764625
 C         2.103166         0.780826        -0.918375
 C         2.985349        -0.328543        -1.628382
 C         1.972221         0.447825         0.540013
 O         3.036577         0.423881         1.165036
 H         2.192378        -2.492684        -3.396940
 H         2.223503        -1.701099        -5.050255
 H         3.770125        -2.057148        -4.077997
 H         2.724602         1.960816        -3.627801
 H         2.080803         0.802358        -4.944512
 H         0.237051         0.071832        -3.549813
 H         2.521162         1.751903        -0.979401
 H         4.077303         0.027015        -1.559252
 H         2.911576        -1.382258        -1.152779
 H         0.909964         0.285772         1.099467
