19
Iteration:  2955
 C         2.662027        -1.637700        -4.075557
 C         2.457577        -0.462031        -3.090948
 C         2.204834         0.852485        -3.800403
 C         1.174219         0.326651        -2.874595
 O         0.887680         0.778497        -1.637048
 C         2.196318         0.885090        -0.991120
 C         3.086590        -0.297954        -1.691959
 C         2.074927         0.514499         0.378555
 O         2.925101         0.413198         1.182867
 H         3.647047        -1.998544        -3.986032
 H         1.941119        -2.445454        -4.086611
 H         2.620627        -1.319034        -5.104831
 H         2.847201         1.729547        -3.539783
 H         2.132893         0.757648        -4.891889
 H         0.247576        -0.021894        -3.333789
 H         2.614342         1.847432        -1.223123
 H         4.133469         0.012592        -1.715773
 H         3.122277        -1.155567        -1.054369
 H         1.033405         0.091359         0.621466
