19
Iteration:  2590
 C         2.620574        -1.843605        -3.610839
 C         2.324033        -0.376101        -3.216688
 C         2.267771         0.948155        -4.009261
 C         1.131281         0.424578        -3.057220
 O         1.039948         0.904847        -1.706947
 C         2.226298         0.813108        -0.994212
 C         3.162806        -0.128749        -1.896200
 C         1.981551         0.293589         0.476080
 O         2.905829         0.307565         1.268861
 H         3.593393        -2.031292        -3.484235
 H         2.101306        -2.417916        -2.816773
 H         2.115591        -2.212132        -4.501738
 H         2.766763         1.730132        -3.343655
 H         1.998329         1.176210        -5.044361
 H         0.175598         0.302577        -3.563189
 H         2.809960         1.737357        -0.906173
 H         4.019281         0.457090        -2.218010
 H         3.484969        -1.066939        -1.536798
 H         0.857906         0.090738         0.778846
