19
Iteration:  2106
 C         2.444923        -1.725706        -3.774846
 C         2.434878        -0.454018        -3.025948
 C         2.076760         0.719106        -3.940374
 C         1.150529         0.356853        -2.806547
 O         1.100342         1.069986        -1.662371
 C         2.464346         0.865833        -1.015047
 C         3.452920        -0.005804        -1.901068
 C         2.063176         0.078308         0.214286
 O         2.533397         0.442331         1.279740
 H         3.417611        -1.902809        -4.133649
 H         2.400831        -2.661726        -3.134528
 H         1.790389        -1.739006        -4.602138
 H         2.447676         1.718481        -3.850759
 H         1.723794         0.592817        -5.055472
 H         0.232048        -0.169872        -3.042006
 H         2.943342         1.831448        -0.900503
 H         4.320896         0.661991        -2.139229
 H         3.730107        -0.895975        -1.364218
 H         1.422202        -0.898067         0.005531
