19
Iteration:  2743charge 0 multiplicity 1
 C         2.388958        -1.624193        -3.947528
 C         2.435389        -0.422319        -3.124764
 C         2.227281         0.806001        -3.859854
 C         1.173480         0.283754        -2.853725
 O         1.059225         0.901390        -1.649226
 C         2.391244         0.783244        -1.018823
 C         3.233536        -0.168237        -1.888963
 C         2.237857         0.128553         0.314712
 O         2.554299         0.666861         1.323920
 H         3.382292        -2.012916        -4.165536
 H         1.846001        -2.458301        -3.298594
 H         1.988050        -1.339519        -5.009322
 H         2.815186         1.612999        -3.414713
 H         2.217857         0.692286        -4.996329
 H         0.193003        -0.157139        -3.073223
 H         2.819236         1.772268        -0.907532
 H         4.265555         0.189349        -1.772350
 H         3.275271        -1.019707        -1.179729
 H         1.944771        -1.060709         0.232399
