19
Iteration:  1197charge 0 multiplicity 1
 C         2.483817        -1.682683        -3.914659
 C         2.441022        -0.376388        -3.108280
 C         2.323006         0.995090        -3.715849
 C         1.189279         0.390906        -3.048497
 O         0.983833         0.771826        -1.740266
 C         2.169025         0.641968        -0.991410
 C         3.092973        -0.365717        -1.764326
 C         2.076733         0.180094         0.445235
 O         2.929911         0.769535         1.180164
 H         3.426375        -2.096911        -4.119069
 H         1.764453        -2.474807        -3.507295
 H         1.967389        -1.421744        -4.938698
 H         2.792544         1.838103        -3.224789
 H         2.360369         1.083114        -4.807647
 H         0.096611         0.101966        -3.456060
 H         2.593180         1.714995        -0.951240
 H         4.062166         0.062994        -1.658535
 H         3.021402        -1.276298        -1.323430
 H         1.613755        -0.843842         0.778498
