19
Iteration:  2042charge 0 multiplicity 1
 C         2.554864        -1.737341        -3.721148
 C         2.431152        -0.309525        -3.193985
 C         2.021917         0.744840        -4.115894
 C         1.196572         0.438001        -2.910278
 O         1.198953         1.005335        -1.616449
 C         2.415005         0.696161        -0.962138
 C         3.242144        -0.079903        -1.910274
 C         2.091681         0.094928         0.367056
 O         2.565264         0.507125         1.370534
 H         3.472102        -1.906502        -4.309923
 H         2.370614        -2.480565        -2.882037
 H         1.882054        -1.851921        -4.564425
 H         2.496985         1.675323        -4.041333
 H         1.527251         0.519625        -5.173099
 H         0.212039         0.017016        -3.053172
 H         2.813203         1.671217        -0.650477
 H         4.180090         0.554121        -2.073039
 H         3.584789        -1.018136        -1.524572
 H         1.417750        -0.795182         0.233835
