19
Iteration:  4980charge 0 multiplicity 1
 C         2.565619        -1.665910        -4.020735
 C         2.409488        -0.426176        -3.077483
 C         2.329867         0.891043        -3.882360
 C         1.126456         0.390334        -2.987753
 O         1.007582         1.005100        -1.690952
 C         2.266866         0.642064        -0.972666
 C         3.028564        -0.458519        -1.699224
 C         2.012374         0.449338         0.469200
 O         2.883856         0.533433         1.236611
 H         3.508948        -1.542542        -4.514821
 H         2.547217        -2.679437        -3.429973
 H         1.820537        -1.817525        -4.768452
 H         3.146754         1.642943        -3.656258
 H         2.121717         0.723053        -4.979239
 H         0.182140         0.118329        -3.344238
 H         2.961966         1.434412        -1.230186
 H         4.152816        -0.244323        -1.686829
 H         3.039473        -1.445429        -1.248784
 H         1.007123         0.079380         0.844432
