19
Iteration:   127charge 0 multiplicity 1
 C         2.554819        -1.663413        -4.042973
 C         2.477170        -0.446090        -3.219643
 C         2.248430         1.009262        -3.753579
 C         1.182147         0.342159        -2.952855
 O         1.084448         0.744231        -1.632694
 C         2.367537         0.607759        -1.031137
 C         3.116684        -0.443529        -1.863490
 C         1.985293         0.424104         0.422607
 O         2.712876         0.758611         1.381259
 H         2.280104        -2.599002        -3.458423
 H         1.735905        -1.592293        -4.858990
 H         3.587811        -1.793512        -4.499788
 H         2.911309         1.649667        -3.150759
 H         1.986493         1.338870        -4.771415
 H         0.275624        -0.038233        -3.423658
 H         2.811387         1.573489        -1.106914
 H         4.238364        -0.312641        -1.755784
 H         3.001179        -1.552428        -1.491729
 H         0.856463         0.065256         0.500209
