19
Iteration:  2841
 C         2.590433        -1.569490        -4.186304
 C         2.425381        -0.440868        -3.095789
 C         2.267617         0.857224        -3.761932
 C         1.190071         0.253340        -2.916114
 O         0.980051         0.872279        -1.650361
 C         2.299923         0.683542        -1.006282
 C         3.055543        -0.433402        -1.737083
 C         2.125161         0.340235         0.442614
 O         2.784257         0.758692         1.285191
 H         3.528817        -1.317043        -4.585296
 H         2.417551        -2.602234        -3.856494
 H         1.717897        -1.537423        -4.860786
 H         2.622098         1.705995        -3.131100
 H         2.327160         0.966042        -4.787869
 H         0.275315        -0.073968        -3.324961
 H         2.774953         1.654355        -1.128408
 H         4.118632        -0.401414        -1.940178
 H         2.836644        -1.446902        -1.274709
 H         1.326901        -0.577766         0.530892
