19
Iteration:  2482charge 0 multiplicity 1
 C         2.800084        -1.708442        -3.866010
 C         2.308586        -0.412099        -3.175347
 C         2.140712         0.837070        -3.947833
 C         1.080701         0.414240        -3.016977
 O         0.993499         0.768608        -1.628177
 C         2.309570         0.812027        -1.031967
 C         3.007986        -0.336309        -1.750919
 C         2.194864         0.772620         0.479080
 O         2.787105         0.189005         1.297312
 H         3.838643        -1.462183        -4.354456
 H         2.916733        -2.472772        -3.100388
 H         2.327000        -1.971161        -4.823166
 H         2.860676         1.795943        -3.813517
 H         1.864607         0.851900        -4.987509
 H         0.196094         0.213952        -3.587934
 H         2.800571         1.830727        -1.249735
 H         4.052848        -0.152416        -1.929582
 H         2.885238        -1.281319        -1.217096
 H         1.275055         1.500913         0.744808
