19
Iteration:   124charge 0 multiplicity 1
 C         2.560073        -1.677908        -4.031445
 C         2.471423        -0.464862        -3.181835
 C         2.242874         1.035050        -3.726289
 C         1.179420         0.366589        -2.965116
 O         1.090974         0.721250        -1.658975
 C         2.348108         0.603942        -1.064387
 C         3.118478        -0.436302        -1.841250
 C         1.998369         0.458236         0.432011
 O         2.708264         0.726757         1.365506
 H         2.266629        -2.478338        -3.528058
 H         1.755729        -1.604391        -4.844292
 H         3.537022        -1.796580        -4.490401
 H         2.912350         1.698701        -3.126041
 H         1.994820         1.245905        -4.768946
 H         0.206280        -0.001803        -3.360732
 H         2.843432         1.589796        -1.238920
 H         4.231548        -0.267581        -1.759275
 H         3.059472        -1.494248        -1.481966
 H         1.005860         0.068762         0.500750
