19
Iteration:  2653
 C         2.530599        -1.705946        -3.916320
 C         2.451788        -0.462503        -3.090878
 C         2.121126         0.764816        -3.895103
 C         1.169049         0.228993        -2.908419
 O         1.095888         1.111548        -1.765655
 C         2.348390         0.938375        -1.041098
 C         3.224370        -0.147294        -1.798910
 C         2.051089         0.239974         0.409733
 O         2.727042         0.371222         1.356576
 H         3.420465        -1.825791        -4.695399
 H         2.343966        -2.687741        -3.298554
 H         1.592837        -1.796592        -4.588429
 H         2.430774         1.802168        -3.637417
 H         2.078660         0.664903        -4.936843
 H         0.203165        -0.220609        -3.100872
 H         2.790730         1.965471        -0.909346
 H         4.304682         0.277974        -1.893775
 H         3.427055        -1.124590        -1.233777
 H         1.110871        -0.309199         0.395402
