19
Iteration:   512
 C         2.591109        -1.693080        -3.943010
 C         2.469837        -0.429476        -3.141452
 C         2.273394         0.941502        -3.857534
 C         1.219659         0.356265        -3.025051
 O         0.996000         0.750391        -1.635798
 C         2.293895         0.838499        -1.114971
 C         3.071244        -0.415967        -1.703776
 C         2.072199         0.782174         0.410541
 O         2.706085         0.218104         1.337511
 H         2.273221        -2.618561        -3.440633
 H         2.271869        -1.660927        -5.003015
 H         3.761761        -1.800173        -4.182194
 H         2.867685         1.887952        -3.654133
 H         2.161874         0.840763        -4.969166
 H         0.276795         0.139015        -3.386647
 H         2.689910         1.892691        -1.239074
 H         4.076403        -0.130584        -1.770300
 H         2.926850        -1.348433        -1.180996
 H         1.183895         1.469452         0.768314
