19
Iteration:  4647charge 0 multiplicity 1
 C         2.503290        -1.755836        -3.941835
 C         2.487860        -0.389259        -3.200856
 C         2.225832         0.870124        -3.897952
 C         1.127293         0.374013        -2.996993
 O         1.050529         0.923230        -1.641495
 C         2.458825         0.800024        -1.044669
 C         3.105473        -0.358898        -1.749920
 C         2.034067         0.437360         0.393256
 O         2.751016         0.467296         1.389496
 H         3.487333        -1.897158        -4.468018
 H         2.393688        -2.594567        -3.321133
 H         1.691887        -1.745486        -4.694592
 H         2.740094         1.724611        -3.557440
 H         1.992218         1.026101        -4.921398
 H         0.271190        -0.027779        -3.454191
 H         3.023046         1.716316        -1.078471
 H         4.178721        -0.294907        -1.679251
 H         2.774772        -1.274222        -1.239054
 H         0.938844         0.134137         0.380233
