19
Iteration:  4565charge 0 multiplicity 1
 C         2.606002        -1.766088        -3.852768
 C         2.453184        -0.404946        -3.179250
 C         2.356887         0.993806        -3.889014
 C         1.167080         0.484700        -3.018490
 O         0.926872         0.764365        -1.662892
 C         2.164378         0.759146        -1.042922
 C         2.928230        -0.377355        -1.724735
 C         2.020913         0.560614         0.446209
 O         3.023763         0.406464         1.237700
 H         3.637159        -2.178312        -4.053224
 H         1.947971        -2.582957        -3.315924
 H         2.227253        -1.739478        -4.922016
 H         3.034230         1.698023        -3.288134
 H         2.542162         0.926911        -4.962616
 H         0.248281         0.363666        -3.535525
 H         2.716744         1.725628        -1.143210
 H         4.067844        -0.255658        -1.605783
 H         2.658008        -1.415629        -1.289095
 H         0.976527         0.466829         0.710312
