19
Iteration:  3772
 C         2.436738        -1.664955        -3.896431
 C         2.504638        -0.313944        -3.213191
 C         2.133585         1.007888        -3.912628
 C         1.187797         0.321492        -2.929014
 O         1.086642         0.807225        -1.629287
 C         2.365218         0.641331        -0.995056
 C         3.267892        -0.392373        -1.809275
 C         2.099903         0.226495         0.355841
 O         2.653397         0.718779         1.343166
 H         3.470721        -2.108147        -4.113340
 H         1.857990        -2.517226        -3.543052
 H         2.021757        -1.418489        -4.849795
 H         2.826403         1.841537        -3.764598
 H         1.814797         1.088975        -4.905726
 H         0.191856        -0.063732        -3.279988
 H         2.994431         1.528134        -0.970555
 H         4.332283        -0.076116        -1.608369
 H         3.205955        -1.444021        -1.463929
 H         1.118785        -0.407955         0.540351
