19
Iteration:   503
 C         2.650110        -1.694852        -3.939994
 C         2.458913        -0.428786        -3.130140
 C         2.271700         0.951944        -3.817433
 C         1.183946         0.351818        -2.968013
 O         0.996870         0.826944        -1.681433
 C         2.230359         0.813406        -1.057547
 C         3.041596        -0.433186        -1.682421
 C         2.032202         0.788062         0.446028
 O         2.759388         0.202843         1.170346
 H         2.440861        -2.636720        -3.434126
 H         2.220875        -1.628859        -4.912079
 H         3.869767        -1.797754        -3.927329
 H         3.079042         1.637270        -3.472042
 H         1.991730         0.803242        -4.844242
 H         0.331628         0.029333        -3.557810
 H         2.867295         1.757226        -1.304124
 H         4.094060        -0.234001        -1.619009
 H         2.927918        -1.273060        -1.074562
 H         1.267035         1.417089         0.775496
