19
Iteration:  3990charge 0 multiplicity 1
 C         2.570713        -1.707637        -3.845109
 C         2.417247        -0.394265        -3.163037
 C         2.273382         0.807250        -3.959190
 C         1.081780         0.401169        -3.019332
 O         0.967127         0.886603        -1.717939
 C         2.292830         0.936496        -0.970391
 C         3.063070        -0.244927        -1.738544
 C         2.040021         0.469498         0.482272
 O         2.948506         0.259554         1.265292
 H         3.642817        -2.084304        -3.758940
 H         1.995781        -2.476880        -3.396580
 H         2.530923        -1.626235        -4.884267
 H         2.787910         1.729130        -3.625574
 H         1.955415         0.644525        -5.010955
 H         0.131003         0.140110        -3.384798
 H         2.832993         1.885062        -1.043338
 H         4.057863         0.231650        -1.739175
 H         3.033342        -1.140577        -1.155259
 H         1.138855        -0.112813         0.461802
