19
Iteration:  3867
 C         2.478856        -1.764916        -3.690084
 C         2.503071        -0.287288        -3.158251
 C         2.112437         0.979561        -3.914267
 C         1.142071         0.344608        -2.957189
 O         1.126888         0.988820        -1.733789
 C         2.332335         0.730736        -1.003472
 C         3.275673        -0.262955        -1.895956
 C         2.032728         0.199515         0.346654
 O         2.708683         0.467482         1.337801
 H         3.434188        -2.052625        -4.221287
 H         2.458186        -2.563415        -2.956805
 H         1.723322        -2.005757        -4.457561
 H         2.470544         2.059646        -3.776429
 H         2.017933         0.815018        -4.951564
 H         0.156647        -0.155593        -3.275109
 H         2.748617         1.726920        -0.853957
 H         4.309710         0.106506        -2.092345
 H         3.351909        -1.256619        -1.510790
 H         1.060780        -0.495122         0.365223
