19
Iteration:  3979charge 0 multiplicity 1
 C         2.611256        -1.720676        -3.773697
 C         2.439659        -0.379622        -3.122558
 C         2.155022         0.932641        -3.969126
 C         1.165064         0.320251        -3.010585
 O         1.036589         0.974542        -1.672417
 C         2.234038         0.883167        -1.070324
 C         3.054872        -0.249300        -1.744353
 C         2.016194         0.345005         0.410653
 O         2.936246         0.290897         1.256351
 H         3.684285        -2.016826        -3.599603
 H         1.961945        -2.407791        -3.278466
 H         2.280857        -1.765511        -4.771793
 H         2.826564         1.794626        -3.907158
 H         2.083926         0.725523        -5.070377
 H         0.194033         0.031952        -3.299719
 H         2.815997         1.804967        -1.056465
 H         4.160344        -0.155409        -1.867794
 H         2.936900        -1.165504        -1.191616
 H         1.004038         0.072213         0.719555
