19
Iteration:  2338
 C         2.622466        -1.764918        -3.781924
 C         2.485954        -0.356446        -3.055483
 C         2.167243         0.785249        -3.951013
 C         1.137848         0.354334        -2.991885
 O         1.028519         1.000149        -1.757287
 C         2.286209         0.914503        -0.973980
 C         3.164583        -0.108424        -1.669012
 C         1.871749         0.398461         0.427237
 O         2.922830         0.215050         1.138711
 H         3.575391        -1.993028        -4.114924
 H         2.504681        -2.563155        -3.025975
 H         1.826481        -1.869624        -4.553463
 H         2.689231         1.741939        -3.859742
 H         1.766572         0.420637        -5.011355
 H         0.219859        -0.198591        -3.346787
 H         2.795693         1.907633        -0.902706
 H         4.172840         0.257650        -1.927736
 H         3.146793        -1.068014        -1.364056
 H         0.878098        -0.007572         0.614488
