19
Iteration:  1536
 C         2.611993        -1.851072        -3.718273
 C         2.304571        -0.426759        -3.156415
 C         2.083979         0.895218        -3.979951
 C         1.093493         0.452852        -2.843940
 O         1.160292         1.063142        -1.573308
 C         2.472762         0.754042        -0.988803
 C         3.219412        -0.054193        -2.019827
 C         2.286071        -0.011240         0.257530
 O         2.401991         0.534328         1.340162
 H         3.650867        -1.873546        -3.963278
 H         2.388591        -2.555240        -2.829352
 H         2.135378        -2.128013        -4.715980
 H         2.713962         1.783834        -3.867759
 H         1.700118         0.753752        -4.971602
 H         0.121534         0.078370        -3.125006
 H         3.086828         1.614616        -0.764261
 H         4.111438         0.433980        -2.370981
 H         3.800670        -0.941996        -1.668681
 H         2.035486        -1.077804         0.071940
