19
Iteration:    10charge 0 multiplicity 1
 C         2.747373        -1.780539        -3.786803
 C         2.516845        -0.372098        -3.091234
 C         2.151604         0.911296        -3.912992
 C         1.101364         0.344161        -2.958280
 O         0.956625         0.841497        -1.666458
 C         2.175777         0.904845        -1.059593
 C         3.152868        -0.160417        -1.746032
 C         2.002788         0.617986         0.391386
 O         2.850666         0.124233         1.145825
 H         2.482655        -2.752458        -3.267285
 H         2.294163        -1.837661        -4.664217
 H         3.760331        -1.636096        -4.014075
 H         2.834070         1.650897        -3.481323
 H         2.264305         0.826155        -4.967767
 H         0.148696        -0.008779        -3.382473
 H         2.825512         1.881706        -1.128369
 H         4.167312         0.017596        -1.585906
 H         2.996188        -1.082844        -1.263089
 H         0.747717         0.639909         0.703374
