19
Iteration:   131
 C         2.542493        -1.654599        -4.071127
 C         2.477151        -0.405052        -3.268134
 C         2.259261         0.972088        -3.791342
 C         1.193738         0.304411        -2.943371
 O         1.065712         0.772967        -1.596441
 C         2.384057         0.610564        -0.986098
 C         3.128113        -0.474721        -1.878573
 C         1.975322         0.381778         0.433687
 O         2.705404         0.793766         1.387521
 H         2.335768        -2.678296        -3.401955
 H         1.837329        -1.601817        -4.833157
 H         3.540431        -1.792170        -4.490218
 H         2.871566         1.654877        -3.248336
 H         2.040368         1.401894        -4.765632
 H         0.329543        -0.048014        -3.490794
 H         2.884299         1.630535        -0.920283
 H         4.177873        -0.340568        -1.805304
 H         2.899534        -1.451967        -1.508011
 H         0.849613         0.091890         0.532894
