19
Iteration:  1397charge 0 multiplicity 1
 C         2.575902        -1.645205        -3.696272
 C         2.487644        -0.323355        -3.044206
 C         2.199643         0.811280        -3.908956
 C         1.102176         0.334311        -2.997160
 O         0.961527         0.945734        -1.780955
 C         2.193509         1.028646        -1.079091
 C         3.074886        -0.172329        -1.728184
 C         2.104366         0.313621         0.374082
 O         2.953252         0.190805         1.187896
 H         3.656018        -1.866837        -3.975103
 H         2.297839        -2.406461        -2.960631
 H         2.124306        -1.829297        -4.611041
 H         2.906410         1.633715        -3.638523
 H         2.027306         0.341800        -4.947352
 H         0.196146        -0.018185        -3.427520
 H         2.720601         2.003879        -1.108620
 H         4.134311        -0.056701        -1.447736
 H         2.886466        -0.969556        -1.123413
 H         1.181993        -0.435966         0.340344
