19
Iteration:   330
 C         2.576416        -1.736509        -3.958768
 C         2.383043        -0.410332        -3.252804
 C         2.179143         0.932848        -3.871901
 C         1.164346         0.429510        -2.895874
 O         1.210784         1.041467        -1.656036
 C         2.482258         0.625945        -0.992482
 C         3.137384        -0.417577        -1.945205
 C         2.163573         0.108893         0.473448
 O         2.410955         0.785383         1.386804
 H         2.399961        -2.566157        -3.183273
 H         1.884289        -1.982372        -4.705060
 H         3.544567        -1.760624        -4.367771
 H         2.824447         1.779304        -3.643322
 H         1.914023         0.860378        -4.970580
 H         0.148666         0.196104        -3.031180
 H         3.095936         1.518950        -0.769490
 H         4.254857        -0.466257        -2.102733
 H         2.822001        -1.467932        -1.555339
 H         1.746930        -0.970603         0.623995
