19
Iteration:  1158
 C         2.485823        -1.725149        -3.969212
 C         2.439733        -0.427630        -3.196155
 C         2.299717         0.950160        -3.880830
 C         1.156569         0.448345        -3.002187
 O         1.000034         0.660992        -1.622622
 C         2.217282         0.795099        -1.027301
 C         3.110201        -0.240350        -1.812363
 C         2.090330         0.379711         0.443636
 O         2.878593         0.575909         1.395654
 H         3.355884        -2.423589        -3.643191
 H         1.656629        -2.426477        -3.786548
 H         2.405370        -1.503929        -5.008665
 H         3.055502         1.809699        -3.679366
 H         2.081525         0.950143        -4.925962
 H         0.282723         0.157297        -3.494190
 H         2.667036         1.776230        -1.132597
 H         4.180151         0.036259        -1.996184
 H         3.039653        -1.329601        -1.313922
 H         1.247593        -0.255308         0.614823
