19
Iteration:  1595
 C         2.378585        -1.678596        -3.830128
 C         2.556088        -0.331162        -3.134740
 C         1.963892         0.837237        -3.939276
 C         1.197670         0.172673        -2.838168
 O         1.219705         0.996521        -1.668489
 C         2.452590         0.805718        -1.003643
 C         3.484267        -0.050586        -1.945355
 C         2.105655         0.058391         0.257937
 O         2.435809         0.542221         1.374180
 H         3.273418        -2.078992        -4.403226
 H         2.171204        -2.469815        -3.151127
 H         1.524258        -1.643651        -4.408198
 H         2.453982         1.772384        -3.608850
 H         1.614798         0.630951        -5.010623
 H         0.236401        -0.327848        -2.723935
 H         2.844573         1.767536        -0.748701
 H         4.463695         0.509902        -2.097025
 H         3.450339        -1.000602        -1.425875
 H         1.440308        -0.793027         0.149162
