19
Iteration:  1774charge 0 multiplicity 1
 C         2.723841        -1.642863        -3.878280
 C         2.484128        -0.377587        -3.161939
 C         2.163729         0.962245        -3.859336
 C         1.110796         0.331029        -3.021812
 O         0.974607         0.900747        -1.735204
 C         2.179358         0.650913        -1.035476
 C         3.001155        -0.390603        -1.697163
 C         2.020313         0.508937         0.484689
 O         2.985543         0.426871         1.207775
 H         3.737541        -1.544794        -4.132054
 H         2.577851        -2.421159        -3.217765
 H         2.096843        -1.885581        -4.784560
 H         2.667742         1.833058        -3.393617
 H         2.122771         0.742302        -4.938345
 H         0.210534        -0.126855        -3.498680
 H         2.770724         1.562592        -1.160047
 H         4.041787        -0.115732        -1.491691
 H         2.828150        -1.363000        -1.205092
 H         1.010307         0.315681         0.947321
