19
Iteration:  2811
 C         2.579805        -1.673772        -4.037224
 C         2.479415        -0.320198        -3.236311
 C         2.112535         0.951709        -3.950911
 C         1.150523         0.461632        -2.968763
 O         1.081960         0.741104        -1.622028
 C         2.410846         0.571429        -0.997046
 C         3.123952        -0.449721        -1.839244
 C         2.084386         0.310544         0.479718
 O         2.697872         0.789011         1.486840
 H         3.562567        -1.931167        -4.399339
 H         2.341880        -2.480669        -3.261528
 H         1.941334        -1.693896        -4.953510
 H         2.632054         1.956635        -3.682421
 H         1.941522         0.786328        -4.995202
 H         0.152704         0.182866        -3.292539
 H         2.863522         1.540421        -1.078401
 H         4.149171        -0.419017        -1.990606
 H         2.929077        -1.475779        -1.596437
 H         1.336657        -0.414139         0.682915
