19
Iteration:  1976
 C         2.571845        -1.764315        -3.803904
 C         2.517693        -0.389511        -3.155369
 C         2.083748         0.821785        -3.974964
 C         1.139871         0.444851        -2.931065
 O         1.074812         0.888723        -1.563052
 C         2.383259         0.890215        -1.013104
 C         3.223593        -0.157494        -1.872655
 C         2.125296         0.234406         0.224070
 O         2.628464         0.451978         1.377845
 H         3.538603        -1.984760        -4.203474
 H         2.256963        -2.560294        -3.035679
 H         1.966072        -1.733078        -4.654804
 H         2.591477         1.790470        -4.000206
 H         1.687572         0.690071        -5.025257
 H         0.093991         0.079218        -3.125685
 H         2.863815         1.826138        -1.089901
 H         4.350036        -0.070344        -1.862980
 H         3.043934        -1.041503        -1.280068
 H         1.435836        -0.658332         0.233395
