19
Iteration:  1981
 C         2.546198        -1.764167        -3.801544
 C         2.508368        -0.406913        -3.132990
 C         2.090532         0.839443        -3.993055
 C         1.136487         0.398560        -2.863218
 O         1.073710         0.879513        -1.596858
 C         2.383935         0.938122        -1.025430
 C         3.252228        -0.146155        -1.876057
 C         2.153947         0.244780         0.260972
 O         2.597190         0.433726         1.370296
 H         3.573315        -1.934694        -4.277926
 H         2.089999        -2.516661        -3.201555
 H         1.868866        -1.821584        -4.752833
 H         2.636135         1.798179        -3.948633
 H         1.825171         0.697989        -5.046049
 H         0.202321         0.015978        -3.209315
 H         2.895107         1.973077        -0.975566
 H         4.323701        -0.031832        -2.059951
 H         3.191159        -1.111795        -1.276745
 H         1.421977        -0.577937         0.220363
