19
Iteration:  2480charge 0 multiplicity 1
 C         2.802254        -1.699828        -3.881483
 C         2.329359        -0.401683        -3.169954
 C         2.150397         0.840782        -3.961398
 C         1.066538         0.426487        -3.008857
 O         0.971913         0.762490        -1.622228
 C         2.323315         0.811530        -1.009797
 C         3.003763        -0.342564        -1.746638
 C         2.208086         0.787804         0.472795
 O         2.777297         0.188119         1.293224
 H         3.818743        -1.548926        -4.261672
 H         2.959914        -2.516172        -3.108611
 H         2.299448        -2.017814        -4.844972
 H         2.874014         1.763316        -3.759029
 H         1.855665         0.787721        -5.028531
 H         0.175074         0.157722        -3.555434
 H         2.796129         1.775235        -1.346952
 H         4.079301        -0.125681        -1.941098
 H         2.842729        -1.272817        -1.296166
 H         1.323690         1.444746         0.739050
