19
Iteration:  1686
 C         2.549330        -1.681789        -3.772640
 C         2.516135        -0.398865        -3.128718
 C         2.048720         0.883575        -3.972706
 C         1.165825         0.254061        -2.911854
 O         1.114609         1.012451        -1.701668
 C         2.337963         0.789450        -1.014008
 C         3.235368        -0.145113        -1.845087
 C         2.088704         0.129987         0.349071
 O         2.680239         0.495167         1.312563
 H         3.517184        -1.987772        -4.017614
 H         2.118319        -2.410278        -3.149405
 H         1.855183        -1.554616        -4.669153
 H         2.384580         1.999253        -3.792033
 H         1.739555         0.557657        -4.928178
 H         0.218403        -0.252594        -3.284834
 H         2.871923         1.753716        -0.696911
 H         4.168844         0.383021        -2.047723
 H         3.382484        -1.083527        -1.289666
 H         1.348711        -0.754062         0.314196
