19
Iteration:  2083charge 0 multiplicity 1
 C         2.564887        -1.831981        -3.740969
 C         2.423057        -0.442909        -3.140822
 C         2.036608         0.848805        -3.917089
 C         1.099152         0.283177        -2.867984
 O         1.200882         1.088542        -1.682669
 C         2.410771         0.978062        -1.029754
 C         3.243219        -0.068010        -1.953834
 C         2.247725         0.163782         0.278857
 O         2.478258         0.367666         1.378743
 H         3.461220        -2.102169        -4.202416
 H         2.546495        -2.695252        -3.009579
 H         1.769750        -1.917940        -4.407676
 H         2.568085         1.683712        -3.633295
 H         1.827024         0.902729        -5.047310
 H         0.073337        -0.141609        -3.017510
 H         3.051801         1.825214        -0.964972
 H         4.167805         0.445240        -2.173125
 H         3.427363        -1.010640        -1.411615
 H         1.555488        -0.709541        -0.144405
