19
Iteration:  1725
 C         2.505586        -1.791158        -3.858945
 C         2.505497        -0.416975        -3.144728
 C         2.250118         0.944294        -3.872872
 C         1.181575         0.310255        -2.973368
 O         0.994862         0.780948        -1.659245
 C         2.232945         0.863006        -1.010593
 C         3.201894        -0.087226        -1.857764
 C         2.060079         0.343687         0.379507
 O         2.802653         0.423236         1.328402
 H         3.578125        -2.187632        -4.218038
 H         1.850882        -2.540257        -3.235003
 H         1.884310        -1.709885        -4.734803
 H         2.792093         1.765156        -3.544372
 H         1.806520         0.945479        -4.912451
 H         0.273533         0.007226        -3.394060
 H         2.577860         1.883906        -1.012256
 H         4.150689         0.430111        -2.162335
 H         3.585838        -0.985106        -1.277201
 H         1.114855        -0.128543         0.514663
