19
Iteration:  3068
 C         2.597080        -1.740356        -3.820606
 C         2.481399        -0.426750        -3.073235
 C         2.081658         0.863971        -3.874657
 C         1.156842         0.195206        -2.915951
 O         1.058215         0.937745        -1.779778
 C         2.216033         0.899695        -1.030194
 C         3.231388         0.027949        -1.704765
 C         1.966813         0.495391         0.463041
 O         2.881574         0.063457         1.101420
 H         3.445051        -1.605394        -4.525700
 H         2.612828        -2.533444        -3.100005
 H         1.733027        -1.935581        -4.492597
 H         2.371172         1.820493        -3.589924
 H         1.971863         0.723092        -5.003034
 H         0.192207        -0.249551        -3.257249
 H         2.614871         1.917082        -0.870059
 H         4.172765         0.663323        -1.987635
 H         3.750270        -0.619432        -0.990983
 H         0.952718         0.743742         0.800865
