19
Iteration:  3799charge 0 multiplicity 1
 C         2.465287        -1.729006        -4.020828
 C         2.386926        -0.436932        -3.165209
 C         2.231664         0.867000        -3.818189
 C         1.092251         0.284206        -2.941777
 O         1.131278         0.933901        -1.674116
 C         2.332893         0.817625        -0.981610
 C         3.202747        -0.226027        -1.875744
 C         2.153763         0.205464         0.407555
 O         2.650154         0.612381         1.406152
 H         3.466551        -2.089273        -3.937148
 H         1.833221        -2.612083        -3.791520
 H         2.302846        -1.397688        -5.107671
 H         2.770175         1.835979        -3.549355
 H         2.204137         0.708889        -4.940498
 H         0.089667         0.013743        -3.240299
 H         2.968911         1.736121        -0.858538
 H         4.159771         0.239947        -1.997373
 H         3.426342        -1.159725        -1.328731
 H         1.508257        -0.655268         0.456844
