19
Iteration:  2881
 C         2.632295        -1.617549        -4.035756
 C         2.423421        -0.392846        -3.182278
 C         2.373161         1.009322        -3.782909
 C         1.127710         0.403908        -3.006459
 O         0.929885         0.654258        -1.596981
 C         2.188126         0.696283        -1.037139
 C         2.961877        -0.452388        -1.798189
 C         2.051901         0.395428         0.542436
 O         2.948124         0.702441         1.244911
 H         3.684351        -1.649880        -4.554924
 H         2.481931        -2.571735        -3.521377
 H         1.963690        -1.571308        -4.927046
 H         3.052634         1.781201        -3.436308
 H         2.231590         1.039353        -4.872971
 H         0.297247        -0.186551        -3.437267
 H         2.764266         1.677772        -1.196447
 H         4.105585        -0.413442        -1.636082
 H         2.660994        -1.426074        -1.383244
 H         1.230093        -0.145490         0.868354
