19
Iteration:  4477
 C         2.621602        -1.708314        -3.993715
 C         2.366727        -0.420108        -3.154122
 C         2.301192         0.868937        -3.895127
 C         1.121956         0.427322        -3.036441
 O         1.034545         0.905824        -1.692122
 C         2.324967         0.691116        -0.991786
 C         2.994393        -0.421724        -1.768953
 C         2.045684         0.522896         0.494179
 O         2.876586         0.467564         1.383764
 H         3.649774        -1.764432        -4.375081
 H         2.455989        -2.506850        -3.189779
 H         1.937044        -1.916273        -4.874582
 H         2.686945         1.833598        -3.782245
 H         2.066971         0.833997        -4.932031
 H         0.143813         0.303999        -3.421042
 H         2.833613         1.618851        -1.132506
 H         4.025376        -0.069597        -2.000096
 H         2.979373        -1.478072        -1.317236
 H         0.952881         0.391233         0.777626
