19
Iteration:  4538charge 0 multiplicity 1
 C         2.477410        -1.666251        -3.815826
 C         2.462653        -0.394540        -3.065497
 C         2.337139         1.041637        -3.761136
 C         1.193983         0.361293        -3.008989
 O         0.880836         0.781562        -1.750343
 C         2.281116         0.691560        -1.055697
 C         3.128144        -0.443284        -1.671282
 C         2.027971         0.549398         0.409981
 O         2.941413         0.446659         1.092920
 H         3.420652        -2.150426        -3.984810
 H         1.818024        -2.362107        -3.424163
 H         2.084944        -1.441437        -4.806952
 H         2.839630         1.580821        -3.011585
 H         2.307368         1.191101        -4.875046
 H         0.332144         0.090278        -3.722209
 H         2.788273         1.724961        -1.037049
 H         4.178829        -0.447770        -1.675392
 H         2.902263        -1.388123        -1.253502
 H         0.898834         0.612270         0.586030
