19
Iteration:   657charge 0 multiplicity 1
 C         2.600170        -1.789030        -3.649049
 C         2.425295        -0.367866        -3.056773
 C         2.465547         0.925495        -3.799377
 C         1.185202         0.515616        -3.159411
 O         0.904478         0.947369        -1.792969
 C         2.035703         0.836773        -1.045873
 C         2.986289        -0.318157        -1.644186
 C         2.060052         0.341927         0.393507
 O         3.007166         0.301254         1.096381
 H         2.005528        -2.540020        -3.227922
 H         2.318359        -1.828922        -4.641107
 H         3.740959        -1.915504        -3.854046
 H         2.924787         1.778975        -3.436377
 H         2.292813         1.072826        -4.872513
 H         0.154410         0.281343        -3.604900
 H         2.683645         1.733224        -1.133822
 H         4.051940        -0.228229        -1.441460
 H         2.541162        -1.162655        -1.174668
 H         1.227640        -0.164260         0.717045
