19
Iteration:   908charge 0 multiplicity 1
 C         2.616911        -1.654895        -4.054907
 C         2.492229        -0.427166        -3.177961
 C         2.186665         0.769864        -3.971345
 C         1.100233         0.418056        -2.986885
 O         1.118590         0.982711        -1.653887
 C         2.363478         0.798389        -1.021406
 C         3.047290        -0.368036        -1.757575
 C         2.039061         0.471652         0.480141
 O         2.745624         0.398618         1.461154
 H         1.745280        -2.319236        -4.131246
 H         3.153916        -1.342454        -4.927944
 H         3.289657        -2.464565        -3.574931
 H         2.720016         1.713671        -3.782819
 H         1.788447         0.765780        -5.053130
 H         0.114371        -0.048540        -3.369471
 H         2.963906         1.710591        -1.062840
 H         4.146108        -0.340850        -1.612659
 H         2.735087        -1.335568        -1.407239
 H         0.993401         0.212706         0.555568
