19
Iteration:   368
 C         2.414323        -1.702690        -4.014839
 C         2.490862        -0.426212        -3.153156
 C         2.205929         0.863146        -3.905262
 C         1.221970         0.401242        -2.945264
 O         1.129946         0.880564        -1.694917
 C         2.393547         0.761505        -1.000256
 C         3.293305        -0.325981        -1.855859
 C         1.992520         0.310453         0.489623
 O         2.606127         0.597607         1.446819
 H         2.032537        -2.487311        -3.421573
 H         1.912416        -1.360678        -4.982566
 H         3.383999        -2.227676        -4.340963
 H         2.793931         1.785640        -3.889173
 H         1.981764         0.618900        -4.921631
 H         0.292865         0.024039        -3.508324
 H         2.801192         1.797953        -0.901971
 H         4.331205        -0.061885        -1.949956
 H         3.161868        -1.130314        -1.226004
 H         1.007357        -0.438128         0.403986
