19
Iteration:   486charge 0 multiplicity 1
 C         2.779009        -1.693518        -3.863695
 C         2.446369        -0.441207        -3.048796
 C         2.355792         0.855418        -3.760056
 C         1.128942         0.338495        -3.040001
 O         0.908289         0.959604        -1.699734
 C         2.218173         0.804668        -1.064939
 C         2.944996        -0.376766        -1.640610
 C         2.070701         0.744557         0.427402
 O         2.862492         0.156257         1.037069
 H         2.454718        -2.660575        -3.345069
 H         2.233970        -1.551293        -4.861254
 H         3.726049        -1.893308        -4.122304
 H         2.507081         1.810529        -3.276800
 H         2.459127         0.891382        -4.858343
 H         0.062978         0.108589        -3.397722
 H         2.707276         1.757677        -1.104748
 H         4.098050        -0.238712        -1.615770
 H         2.630857        -1.436801        -1.220576
 H         1.084022         1.311301         0.946268
