19
Iteration:  1581charge 0 multiplicity 1
 C         2.372043        -1.666705        -3.781471
 C         2.499881        -0.322308        -3.189858
 C         1.985350         0.790846        -4.047307
 C         1.159712         0.228636        -2.865734
 O         1.221744         0.948337        -1.656524
 C         2.543185         0.810470        -0.986475
 C         3.398239        -0.058269        -1.932159
 C         2.169422         0.128028         0.304420
 O         2.393079         0.491473         1.475372
 H         3.257695        -2.004500        -4.341995
 H         2.090168        -2.388650        -2.909904
 H         1.643860        -1.629946        -4.601075
 H         2.209396         1.935863        -3.929828
 H         1.885352         0.713100        -5.069884
 H         0.284490        -0.380802        -3.231639
 H         2.911283         1.803042        -0.821234
 H         4.285351         0.501409        -2.252531
 H         4.001271        -0.918113        -1.538239
 H         1.680078        -0.850324         0.248791
