19
Iteration:  2405
 C         2.606744        -1.684167        -3.914819
 C         2.501452        -0.455495        -3.131341
 C         2.240762         0.847820        -3.849042
 C         1.147471         0.315641        -2.867716
 O         0.956647         0.759153        -1.627433
 C         2.293699         0.832639        -1.060387
 C         3.134411        -0.203003        -1.741269
 C         2.085726         0.776236         0.411188
 O         2.762495         0.184313         1.144047
 H         3.632646        -2.027316        -4.070557
 H         2.141090        -2.565339        -3.520408
 H         2.092354        -1.447268        -4.859183
 H         2.962355         1.678647        -3.621560
 H         1.818511         0.746533        -4.886655
 H         0.355192        -0.196414        -3.397135
 H         2.675975         1.827196        -1.374692
 H         4.125451         0.254500        -1.693268
 H         3.043028        -1.002330        -1.057493
 H         1.147400         1.207411         0.717506
