19
Iteration:  3468
 C         2.659548        -1.682119        -3.712258
 C         2.538536        -0.330270        -3.182493
 C         2.020835         0.826725        -4.025386
 C         1.123383         0.192595        -2.867332
 O         1.039980         0.991636        -1.709503
 C         2.300578         0.830184        -1.031647
 C         3.291314         0.057962        -1.891718
 C         2.012782         0.414967         0.397573
 O         2.764284         0.113877         1.302554
 H         3.577104        -2.237493        -3.986004
 H         2.169854        -2.320477        -2.846999
 H         2.033381        -1.887206        -4.538181
 H         2.331203         1.805057        -3.845263
 H         1.795546         0.570620        -5.149207
 H         0.187805        -0.309539        -3.082621
 H         2.645092         1.853644        -0.776168
 H         4.328597         0.319923        -2.139200
 H         3.435434        -0.904047        -1.287419
 H         0.892937         0.438367         0.579382
