19
Iteration:   793
 C         2.524754        -1.674113        -4.056294
 C         2.401011        -0.441061        -3.161781
 C         2.390485         0.942161        -3.766797
 C         1.188218         0.391028        -2.958713
 O         1.078690         0.964958        -1.766118
 C         2.229222         0.662511        -1.010309
 C         3.005923        -0.527724        -1.701491
 C         2.012447         0.264019         0.500443
 O         2.808003         0.707119         1.299260
 H         2.952048        -2.479676        -3.365678
 H         1.786615        -1.850821        -4.904662
 H         3.375592        -1.433926        -4.712707
 H         3.005003         1.796010        -3.456460
 H         2.257169         1.011730        -4.915911
 H         0.197093         0.348859        -3.517589
 H         3.007754         1.490807        -0.901788
 H         4.080108        -0.376597        -1.628179
 H         2.672068        -1.447371        -1.334300
 H         1.077706        -0.462939         0.729994
