19
Iteration:  3245
 C         2.760608        -1.815593        -3.596213
 C         2.421495        -0.410446        -3.027783
 C         2.044227         0.767370        -3.949791
 C         1.076269         0.265942        -2.853715
 O         1.014850         1.073058        -1.715586
 C         2.268585         1.078887        -1.038809
 C         3.254793         0.105685        -1.847625
 C         2.050245         0.511957         0.385671
 O         2.773041        -0.190346         0.996352
 H         3.593475        -1.675531        -4.350407
 H         3.317613        -2.412012        -2.879710
 H         1.926884        -2.391568        -4.072454
 H         2.611096         1.671165        -3.809822
 H         1.726984         0.605380        -5.008896
 H         0.133342        -0.245020        -3.082806
 H         2.581913         2.172281        -0.883865
 H         4.230873         0.602078        -2.263694
 H         3.339269        -0.695766        -1.065270
 H         1.038520         0.925645         0.714587
