19
Iteration:   212
 C         2.469412        -1.692585        -4.060337
 C         2.346887        -0.444350        -3.223040
 C         2.250677         1.081160        -3.737029
 C         1.209078         0.385280        -2.871453
 O         1.120532         0.750236        -1.543266
 C         2.558526         0.612751        -1.073608
 C         3.200481        -0.540309        -1.881899
 C         2.326562         0.209326         0.396518
 O         2.271145         0.956633         1.309309
 H         2.012449        -2.547078        -3.398815
 H         1.886290        -1.696987        -5.106602
 H         3.522491        -1.944537        -4.324926
 H         3.013693         1.739958        -3.294065
 H         1.857978         1.339578        -4.752670
 H         0.358412         0.470274        -3.511299
 H         3.025102         1.659204        -1.101523
 H         4.321750        -0.521663        -1.930563
 H         2.912727        -1.418789        -1.351382
 H         2.094214        -0.970046         0.593676
