19
Iteration:  1573charge 0 multiplicity 1
 C         2.401085        -1.750361        -3.780400
 C         2.460573        -0.311103        -3.172177
 C         2.020466         0.852225        -4.049318
 C         1.167840         0.315591        -2.922598
 O         1.198001         0.934958        -1.654321
 C         2.579467         0.788178        -1.005827
 C         3.350818        -0.034260        -1.991185
 C         2.222421         0.123695         0.366616
 O         2.372186         0.478208         1.514981
 H         3.423283        -2.062218        -4.172142
 H         2.133500        -2.544618        -3.131814
 H         1.703680        -1.787208        -4.543690
 H         2.350735         1.951822        -4.076847
 H         1.728178         0.391759        -5.060686
 H         0.263756        -0.342163        -2.897873
 H         2.900866         1.798633        -0.885939
 H         4.084496         0.740648        -2.368185
 H         3.736754        -0.951378        -1.504917
 H         1.740421        -0.864331         0.201825
