19
Iteration:  4390
 C         2.402686        -1.816633        -3.874656
 C         2.446623        -0.456535        -3.213346
 C         2.284325         0.915438        -3.904480
 C         1.197318         0.469111        -3.027119
 O         1.034668         0.957754        -1.675875
 C         2.263324         0.708604        -0.980499
 C         3.238601        -0.206081        -1.906777
 C         2.090847         0.157215         0.485452
 O         2.749782         0.610024         1.402898
 H         3.331578        -2.276018        -4.067907
 H         1.976581        -2.635659        -3.237153
 H         1.841186        -1.589676        -4.816760
 H         3.060554         1.494531        -3.571399
 H         1.969051         0.939644        -4.953265
 H         0.168545         0.321501        -3.461163
 H         2.825419         1.623977        -0.938918
 H         4.246975         0.250857        -2.138526
 H         3.299219        -1.112805        -1.203136
 H         1.269451        -0.603316         0.478849
