19
Iteration:    45charge 0 multiplicity 1
 C         2.757585        -1.636395        -3.683121
 C         2.404321        -0.370165        -3.075589
 C         2.288832         0.919768        -3.817763
 C         1.102637         0.327120        -3.080150
 O         0.906440         0.919520        -1.808296
 C         2.109630         0.753321        -1.041665
 C         2.961103        -0.296373        -1.716464
 C         2.058997         0.458031         0.457056
 O         3.020890         0.280516         1.102612
 H         2.469659        -2.520192        -3.168871
 H         2.510865        -1.640582        -4.722416
 H         3.833403        -1.678611        -3.657878
 H         2.830628         1.762837        -3.441653
 H         2.407553         0.794042        -4.902611
 H         0.147872         0.087785        -3.513598
 H         2.581252         1.753942        -1.150633
 H         3.983147         0.053747        -1.641573
 H         2.864390        -1.288314        -1.299307
 H         0.959056         0.347676         0.931848
