19
Iteration:  3711
 C         2.612456        -1.579232        -4.161229
 C         2.391323        -0.526796        -3.127395
 C         2.391522         0.882709        -3.733872
 C         1.105542         0.360420        -2.987538
 O         0.964075         0.794890        -1.620719
 C         2.287808         0.707850        -0.956219
 C         3.054371        -0.448726        -1.776004
 C         2.126086         0.222313         0.416327
 O         2.782249         0.867013         1.313461
 H         3.444881        -1.579299        -4.832893
 H         2.414861        -2.587988        -3.733537
 H         1.673522        -1.344394        -4.770685
 H         2.871691         1.707237        -3.264778
 H         2.129411         0.906966        -4.879817
 H         0.122010         0.198110        -3.376424
 H         2.766515         1.720939        -0.943283
 H         4.071211        -0.164372        -1.954200
 H         3.104380        -1.438037        -1.289616
 H         1.454441        -0.682024         0.542078
