19
Iteration:  2888
 C         2.640756        -1.602535        -4.013375
 C         2.496678        -0.337552        -3.224969
 C         2.370669         1.002088        -3.818929
 C         1.132273         0.388371        -3.007730
 O         0.905287         0.638434        -1.598274
 C         2.212313         0.655213        -0.988220
 C         2.947611        -0.465168        -1.836909
 C         2.030099         0.415924         0.496482
 O         2.982125         0.697944         1.254895
 H         3.650479        -1.680350        -4.254531
 H         2.319387        -2.452869        -3.384922
 H         1.952567        -1.737842        -4.828318
 H         3.040613         1.760053        -3.447465
 H         2.171515         1.010753        -4.955362
 H         0.105208         0.046416        -3.338556
 H         2.579512         1.662499        -0.918621
 H         3.959188        -0.387588        -1.579680
 H         2.612260        -1.443088        -1.522302
 H         1.075534        -0.090587         1.106918
