19
Iteration:  2976charge 0 multiplicity 1
 C         2.706010        -1.649948        -3.914694
 C         2.438885        -0.395081        -3.119054
 C         2.166360         0.900250        -3.915353
 C         1.037974         0.280073        -3.052153
 O         0.980858         0.846100        -1.684711
 C         2.261268         0.795765        -1.013654
 C         3.098459        -0.233952        -1.759461
 C         2.041649         0.450411         0.538176
 O         2.942076         0.356586         1.264351
 H         3.733437        -1.923906        -3.906877
 H         2.025672        -2.519760        -3.616684
 H         2.532694        -1.529391        -4.993499
 H         2.527784         1.936248        -3.627507
 H         2.024892         0.879942        -5.032276
 H         0.096483        -0.116288        -3.452318
 H         2.651837         1.845996        -1.038767
 H         4.161118        -0.015959        -1.716997
 H         3.097635        -1.185266        -1.131075
 H         1.001695         0.351476         0.738833
