19
Iteration:  2161
 C         2.617827        -1.832915        -3.631330
 C         2.421714        -0.438172        -3.203778
 C         1.941930         0.913274        -4.082199
 C         1.158491         0.359453        -2.926705
 O         1.120683         1.125358        -1.742996
 C         2.449089         0.858595        -1.031637
 C         3.304145        -0.062887        -1.988302
 C         2.123504         0.115928         0.427125
 O         2.558321         0.329757         1.490975
 H         3.445839        -2.139201        -4.176847
 H         2.507148        -2.451407        -2.672320
 H         1.852859        -2.185595        -4.305469
 H         2.676120         1.839094        -4.088686
 H         1.660699         0.620752        -5.151398
 H         0.178731         0.062924        -3.228391
 H         3.012277         1.801947        -0.886764
 H         4.304637         0.476415        -2.169476
 H         3.581894        -0.950984        -1.448640
 H         1.334221        -0.566507         0.069461
