19
Iteration:  2378
 C         2.677353        -1.763005        -3.741323
 C         2.405968        -0.443197        -3.217661
 C         2.202528         0.929268        -3.914333
 C         1.099668         0.385390        -3.042295
 O         0.965703         0.839046        -1.746183
 C         2.304364         0.852513        -0.981759
 C         3.125890        -0.224123        -1.895972
 C         2.052358         0.652691         0.486688
 O         2.856994         0.162762         1.313374
 H         3.782490        -1.838853        -3.943251
 H         2.361438        -2.557412        -2.928260
 H         2.100338        -2.183341        -4.588520
 H         2.543081         1.903435        -3.562013
 H         1.981390         0.838885        -4.964893
 H         0.186075         0.083269        -3.551364
 H         2.674344         1.884685        -1.074798
 H         4.213825         0.055649        -1.971940
 H         3.186320        -1.067170        -1.104474
 H         1.014610         0.908628         0.949580
