19
Iteration:  1531charge 0 multiplicity 1
 C         2.606247        -1.825626        -3.702062
 C         2.309525        -0.396400        -3.086022
 C         2.048613         0.889624        -3.923684
 C         1.085888         0.430212        -2.871022
 O         1.191577         1.063505        -1.583040
 C         2.441731         0.738586        -1.036415
 C         3.240280        -0.069450        -2.022111
 C         2.319047        -0.000195         0.268183
 O         2.397764         0.514954         1.297391
 H         3.721868        -1.918007        -3.950051
 H         2.425227        -2.522496        -2.946451
 H         2.066764        -2.069948        -4.621608
 H         2.663030         1.825554        -3.897813
 H         1.860405         0.738376        -5.042575
 H         0.096904         0.117694        -3.276143
 H         3.073256         1.672312        -0.812560
 H         4.153889         0.493562        -2.378453
 H         3.644329        -0.987182        -1.582946
 H         1.859354        -1.054320         0.224912
