19
Iteration:  3583charge 0 multiplicity 1
 C         2.574824        -1.660124        -3.957544
 C         2.549505        -0.350058        -3.095406
 C         2.259356         0.931763        -3.824365
 C         1.111629         0.254567        -3.057977
 O         0.908097         0.770197        -1.739800
 C         2.169975         0.854360        -1.003540
 C         3.066587        -0.283031        -1.627221
 C         2.099524         0.406274         0.421121
 O         2.977505         0.448959         1.231644
 H         3.608837        -1.709066        -4.371485
 H         2.377286        -2.560459        -3.399700
 H         1.804107        -1.498943        -4.780527
 H         2.717018         1.878776        -3.511923
 H         2.106599         0.929952        -4.934260
 H         0.218611        -0.295010        -3.355030
 H         2.569541         1.898487        -1.059822
 H         4.179778        -0.162604        -1.501941
 H         2.935085        -1.309687        -1.182952
 H         0.966192         0.215921         0.626628
