19
Iteration:  1140
 C         2.542841        -1.693687        -3.910754
 C         2.422355        -0.354822        -3.240507
 C         2.193173         0.973813        -3.938240
 C         1.133051         0.344259        -2.983520
 O         1.008326         0.718249        -1.629742
 C         2.411790         0.804611        -1.043207
 C         3.120948        -0.328070        -1.805493
 C         2.075190         0.432396         0.413241
 O         2.833793         0.497293         1.421504
 H         3.493051        -2.150931        -3.606613
 H         1.727526        -2.328294        -3.548475
 H         2.587595        -1.559099        -5.056759
 H         2.638077         1.884853        -3.563268
 H         1.898789         0.772364        -4.993375
 H         0.184030         0.073086        -3.425941
 H         2.865994         1.868244        -1.093651
 H         4.212902        -0.362897        -1.774186
 H         2.834425        -1.194703        -1.341517
 H         0.921225         0.147200         0.504129
