19
Iteration:  4359
 C         2.386002        -1.727368        -3.680369
 C         2.439761        -0.336116        -3.225671
 C         2.243553         0.987516        -3.921352
 C         1.173127         0.417457        -3.031567
 O         1.116067         0.829839        -1.620299
 C         2.414886         0.687359        -1.043600
 C         3.209805        -0.299581        -1.898016
 C         2.098751         0.167524         0.300616
 O         2.651701         0.614162         1.362839
 H         3.329632        -2.205234        -3.952747
 H         1.693919        -2.234536        -2.996532
 H         1.823988        -1.702747        -4.609953
 H         2.862169         1.812579        -3.557404
 H         2.181325         1.023748        -5.057043
 H         0.119732         0.165695        -3.194076
 H         3.052066         1.626750        -0.929521
 H         4.265294         0.111667        -2.014836
 H         3.170788        -1.135256        -1.245632
 H         1.252043        -0.582399         0.337870
