19
Iteration:   181charge 0 multiplicity 1
 C         2.540767        -1.606284        -4.153623
 C         2.357703        -0.445004        -3.145067
 C         2.323107         0.904310        -3.847419
 C         1.145900         0.330062        -2.952894
 O         1.073799         0.889847        -1.609525
 C         2.438414         0.638956        -1.008812
 C         3.056173        -0.520828        -1.822721
 C         2.318773         0.174571         0.482329
 O         2.443235         0.930545         1.409280
 H         2.350671        -2.450621        -3.701265
 H         1.879056        -1.466049        -5.063563
 H         3.601420        -1.731888        -4.481128
 H         2.798013         1.834850        -3.583043
 H         2.396118         0.862146        -4.936811
 H         0.181308         0.092760        -3.380912
 H         2.909852         1.612471        -1.013724
 H         4.181854        -0.480428        -1.850585
 H         2.658051        -1.465025        -1.312726
 H         2.213225        -0.885776         0.579002
