19
Iteration:  4610
 C         2.616590        -1.629923        -3.930657
 C         2.408866        -0.466285        -3.065286
 C         2.267378         0.843757        -3.867720
 C         1.065627         0.356681        -3.117846
 O         1.012674         1.034173        -1.742932
 C         2.316772         0.699642        -0.989571
 C         3.043149        -0.426408        -1.648644
 C         2.013220         0.481813         0.442213
 O         2.923428         0.437795         1.267513
 H         3.640471        -1.676499        -4.469941
 H         2.300161        -2.668003        -3.446362
 H         1.926560        -1.510781        -4.805424
 H         2.708208         1.713787        -3.264444
 H         2.267021         0.830875        -4.998704
 H         0.052742        -0.056638        -3.446434
 H         2.870941         1.656199        -1.022562
 H         4.220492        -0.290207        -1.624780
 H         2.923456        -1.486584        -1.234698
 H         0.960635         0.371224         0.710903
