19
Iteration:  2753
 C         2.413299        -1.636637        -3.989560
 C         2.450640        -0.443286        -3.071680
 C         2.231345         0.860947        -3.854031
 C         1.168877         0.310216        -2.856236
 O         1.030676         0.881626        -1.592637
 C         2.375600         0.776999        -1.091252
 C         3.268986        -0.218845        -1.802868
 C         2.241179         0.109397         0.282628
 O         2.553596         0.709861         1.330482
 H         3.410707        -2.076178        -4.047665
 H         1.661942        -2.456718        -3.641593
 H         1.865045        -1.548577        -4.992136
 H         2.908425         1.629946        -3.576070
 H         2.112866         0.940711        -4.991127
 H         0.258274        -0.181671        -3.250511
 H         2.834235         1.750131        -0.924510
 H         4.210913         0.226799        -2.259801
 H         3.474148        -1.161719        -1.206180
 H         1.734061        -0.939130         0.350526
