19
Iteration:  2705
 C         2.543920        -1.798701        -3.806012
 C         2.394116        -0.377064        -3.286032
 C         2.068276         0.942572        -4.013456
 C         1.136589         0.381593        -2.958265
 O         1.164243         0.938630        -1.630622
 C         2.434424         0.706206        -0.993154
 C         3.260714        -0.225741        -1.962062
 C         2.080459         0.255444         0.447801
 O         2.602902         0.553431         1.501679
 H         3.550490        -1.753983        -4.312630
 H         2.524394        -2.549711        -3.093126
 H         1.773235        -2.128260        -4.436998
 H         2.774889         1.803553        -3.908412
 H         1.733063         0.868895        -4.991305
 H         0.185119         0.039986        -3.323618
 H         2.934618         1.715858        -0.939458
 H         4.312063         0.148513        -1.963055
 H         3.240216        -1.304590        -1.828311
 H         1.297419        -0.574139         0.385693
