19
Iteration:  3059charge 0 multiplicity 1
 C         2.574344        -1.742098        -3.882762
 C         2.513529        -0.437642        -3.005305
 C         2.119851         0.838933        -3.823252
 C         1.114530         0.176685        -3.011682
 O         0.949036         0.971267        -1.667685
 C         2.242018         0.950802        -1.012032
 C         3.330627         0.017598        -1.778766
 C         1.975588         0.498823         0.367056
 O         2.870210         0.081728         1.153042
 H         3.417512        -1.846512        -4.606468
 H         2.808458        -2.601487        -3.276575
 H         1.617418        -1.704409        -4.436833
 H         2.567245         1.742392        -3.533527
 H         2.167992         0.558425        -4.895288
 H         0.240707        -0.418823        -3.339205
 H         2.612285         1.972084        -0.987998
 H         4.134457         0.695600        -2.036137
 H         3.498673        -0.738031        -1.016542
 H         1.005866         0.585982         0.782090
