19
Iteration:  2481
 C         2.800911        -1.704325        -3.873570
 C         2.318414        -0.406087        -3.172603
 C         2.144468         0.837324        -3.954940
 C         1.073359         0.420839        -3.013205
 O         0.982923         0.765160        -1.625231
 C         2.316272         0.811910        -1.019866
 C         3.005698        -0.340189        -1.747999
 C         2.203390         0.778957         0.476882
 O         2.781320         0.189281         1.294455
 H         3.831236        -1.506163        -4.311646
 H         2.940507        -2.494275        -3.100767
 H         2.315777        -1.994005        -4.838787
 H         2.875132         1.789007        -3.785208
 H         1.860234         0.821486        -5.008183
 H         0.191110         0.186558        -3.574862
 H         2.799739         1.805989        -1.300465
 H         4.064815        -0.138210        -1.937328
 H         2.864423        -1.271645        -1.259984
 H         1.295744         1.474961         0.741565
