19
Iteration:  4781
 C         2.494722        -1.708075        -3.888742
 C         2.383002        -0.410383        -3.119247
 C         2.196594         0.786627        -3.993804
 C         1.189338         0.415538        -2.921666
 O         1.198281         1.070328        -1.672562
 C         2.415675         0.646400        -0.930198
 C         3.193647        -0.297187        -1.922879
 C         1.922666         0.252306         0.436092
 O         2.674511         0.575680         1.358751
 H         3.421220        -1.855360        -4.391999
 H         2.277470        -2.617325        -3.323191
 H         1.749744        -1.650336        -4.699658
 H         2.747308         1.681965        -3.698799
 H         2.038939         0.686739        -5.122483
 H         0.208674        -0.041088        -3.338224
 H         3.056773         1.525689        -0.799400
 H         4.091268         0.205150        -2.162913
 H         3.388194        -1.227035        -1.399263
 H         1.132886        -0.513623         0.709747
