19
Iteration:   430charge 0 multiplicity 1
 C         2.670106        -1.766535        -3.779882
 C         2.441844        -0.360907        -3.140378
 C         2.410053         0.951134        -3.918687
 C         1.188603         0.423934        -3.061447
 O         0.901654         0.941194        -1.712269
 C         2.141929         0.727763        -1.007905
 C         2.955730        -0.282723        -1.682067
 C         1.987819         0.520053         0.465995
 O         2.967851         0.258717         1.110163
 H         2.252878        -2.500063        -2.934708
 H         2.045352        -2.133458        -4.636488
 H         3.672216        -1.963738        -3.878200
 H         3.145564         1.692987        -3.558909
 H         2.243584         0.783451        -4.952070
 H         0.204875         0.110816        -3.567158
 H         2.646934         1.716465        -0.980514
 H         4.079904         0.009370        -1.510496
 H         2.905042        -1.353315        -1.157756
 H         0.963065         0.627662         0.951591
