19
Iteration:  1885
 C         2.527034        -1.604730        -3.953387
 C         2.466962        -0.390873        -3.154541
 C         2.298416         0.990968        -3.765864
 C         1.156928         0.314591        -3.007030
 O         0.993593         0.605200        -1.644562
 C         2.271241         0.748067        -1.074578
 C         3.101800        -0.355826        -1.731564
 C         2.058130         0.534046         0.354314
 O         2.858651         0.540410         1.313268
 H         3.487943        -1.940265        -4.295449
 H         2.054246        -2.382856        -3.296586
 H         1.858865        -1.534767        -4.875143
 H         2.804586         1.952588        -3.693538
 H         2.308202         0.875544        -4.915035
 H         0.225765         0.065084        -3.472010
 H         2.596278         1.754294        -1.141024
 H         4.163131        -0.170423        -1.687061
 H         2.950733        -1.325192        -1.227903
 H         0.977609         0.277799         0.562202
