19
Iteration:  3533charge 0 multiplicity 1
 C         2.786908        -1.790419        -3.775938
 C         2.344338        -0.438247        -3.152538
 C         2.184755         0.949669        -3.910084
 C         1.089123         0.343296        -2.974284
 O         0.977307         0.958104        -1.673963
 C         2.228798         0.775856        -1.031811
 C         3.094758        -0.169095        -1.859157
 C         2.012726         0.410687         0.437768
 O         2.926354         0.281648         1.243580
 H         3.816468        -1.619877        -4.138935
 H         2.586411        -2.455176        -2.891196
 H         2.117622        -2.065133        -4.555383
 H         2.663447         1.835982        -3.581473
 H         1.980706         0.918737        -5.023540
 H         0.061454         0.103472        -3.290052
 H         2.632073         1.806029        -1.010362
 H         4.018477         0.364099        -2.119125
 H         3.433122        -1.033634        -1.218866
 H         0.959007         0.063954         0.566574
