19
Iteration:  3995
 C         2.587918        -1.726145        -3.874337
 C         2.389473        -0.421550        -3.126920
 C         2.304046         0.788710        -3.943085
 C         1.082411         0.442694        -3.015548
 O         0.940961         0.873918        -1.717755
 C         2.297912         0.914431        -0.944041
 C         3.070246        -0.188488        -1.743428
 C         2.047230         0.496770         0.436576
 O         2.966731         0.258642         1.295120
 H         3.583251        -2.098561        -3.768656
 H         1.907099        -2.610214        -3.565387
 H         2.408366        -1.576025        -5.023621
 H         2.739856         1.719983        -3.596525
 H         2.005769         0.669878        -4.973197
 H         0.157134         0.071486        -3.584761
 H         2.644729         1.962110        -1.120243
 H         4.128911         0.121139        -1.707426
 H         3.140862        -1.231753        -1.260025
 H         1.038051        -0.085342         0.556001
