19
Iteration:  3008charge 0 multiplicity 1
 C         2.730599        -1.732535        -3.756437
 C         2.489620        -0.308150        -3.228896
 C         2.066297         0.955746        -3.985562
 C         1.071492         0.338368        -3.010302
 O         0.970056         0.884840        -1.695138
 C         2.294309         0.738902        -0.989003
 C         3.201575        -0.235328        -1.853920
 C         1.988824         0.469817         0.486539
 O         2.904077         0.257953         1.292447
 H         3.742854        -1.891053        -4.113112
 H         2.526458        -2.555148        -2.936463
 H         1.985036        -2.038442        -4.562135
 H         2.418172         2.012281        -3.662630
 H         1.759613         0.952196        -5.047790
 H         0.131894        -0.069648        -3.377087
 H         2.672992         1.801330        -1.091680
 H         4.199191         0.163133        -1.791327
 H         3.165593        -1.155431        -1.150180
 H         0.928474         0.509606         0.882924
