19
Iteration:  3786
 C         2.477525        -1.678032        -4.020091
 C         2.469137        -0.457781        -3.110898
 C         2.167928         0.934219        -3.881582
 C         1.204946         0.354244        -2.944268
 O         1.073482         0.895028        -1.610361
 C         2.421229         0.693081        -1.011621
 C         3.226770        -0.281846        -1.828434
 C         2.031932         0.188484         0.374790
 O         2.684955         0.687854         1.363468
 H         3.429953        -2.200769        -4.072654
 H         1.683575        -2.246308        -3.449318
 H         2.138821        -1.601663        -5.085308
 H         2.464370         1.875402        -3.496542
 H         1.937357         0.815490        -5.026771
 H         0.299128        -0.079664        -3.279648
 H         2.782550         1.754532        -0.901200
 H         4.199646         0.030757        -2.149459
 H         3.233926        -1.260094        -1.268632
 H         1.329579        -0.690965         0.414188
