19
Iteration:  2972charge 0 multiplicity 1
 C         2.691318        -1.639929        -3.964013
 C         2.424638        -0.424575        -3.107825
 C         2.189479         0.904319        -3.902733
 C         1.037101         0.265111        -3.076472
 O         0.965420         0.842396        -1.636258
 C         2.249210         0.843803        -1.048777
 C         3.146016        -0.249348        -1.703950
 C         2.003699         0.462838         0.528811
 O         2.963804         0.361408         1.255345
 H         3.777852        -2.008203        -3.857330
 H         2.038585        -2.493848        -3.605704
 H         2.572840        -1.412963        -5.072594
 H         2.559477         1.853420        -3.652630
 H         1.938229         0.822932        -5.003259
 H         0.065811        -0.056074        -3.516332
 H         2.731640         1.877036        -1.057517
 H         4.211986         0.001316        -1.754816
 H         3.065958        -1.279274        -1.139565
 H         0.899997         0.225797         0.718359
