19
Iteration:  3115charge 0 multiplicity 1
 C         2.857053        -1.747530        -3.522733
 C         2.373278        -0.331927        -3.094412
 C         1.966070         0.805599        -4.096362
 C         1.051700         0.359421        -2.999763
 O         1.023829         0.973273        -1.680450
 C         2.291777         1.015747        -1.005618
 C         3.125645        -0.007871        -1.833785
 C         2.119734         0.484465         0.372541
 O         2.855159        -0.110722         1.180730
 H         3.943480        -1.756831        -3.625840
 H         2.259836        -2.440606        -2.940539
 H         2.513684        -1.885029        -4.567849
 H         2.554986         1.781747        -4.150600
 H         1.450707         0.578926        -4.960278
 H         0.135487        -0.076160        -3.319746
 H         2.742816         1.995068        -1.043327
 H         4.160929         0.256956        -1.855987
 H         3.361661        -0.976498        -1.341180
 H         1.014317         0.516082         0.619877
