19
Iteration:  1872charge 0 multiplicity 1
 C         2.539179        -1.722322        -3.920490
 C         2.527846        -0.349006        -3.158413
 C         2.265256         1.124542        -3.742567
 C         1.188967         0.339065        -3.073840
 O         0.930520         0.609362        -1.684282
 C         2.256741         0.662016        -1.070770
 C         3.088268        -0.425982        -1.803015
 C         2.057145         0.613788         0.490961
 O         2.889594         0.537778         1.301534
 H         3.600248        -1.986647        -4.257632
 H         2.150512        -2.513888        -3.286186
 H         1.848482        -1.709675        -4.888405
 H         2.583413         1.928627        -3.153082
 H         2.085305         1.133032        -4.875036
 H         0.363409        -0.068770        -3.582928
 H         2.804216         1.574116        -1.351940
 H         4.147708        -0.161535        -1.797742
 H         2.933101        -1.429241        -1.358718
 H         0.909879         0.711682         0.677239
