19
Iteration:  3056
 C         2.581294        -1.728366        -3.890084
 C         2.525838        -0.431325        -2.990977
 C         2.143620         0.816384        -3.826508
 C         1.106177         0.184729        -2.996651
 O         0.912497         0.966540        -1.654834
 C         2.249529         0.964114        -1.017667
 C         3.327487         0.013060        -1.794235
 C         2.008631         0.490077         0.378657
 O         2.849932         0.093585         1.151583
 H         3.404623        -1.826706        -4.625597
 H         2.724836        -2.655885        -3.336937
 H         1.609624        -1.775285        -4.388143
 H         2.602257         1.731460        -3.530518
 H         2.191543         0.605127        -4.929851
 H         0.227079        -0.405297        -3.324134
 H         2.623932         1.996397        -1.002423
 H         4.252548         0.677843        -2.078478
 H         3.507041        -0.820788        -1.127699
 H         0.969977         0.538813         0.705941
