19
Iteration:   658
 C         2.595022        -1.797514        -3.648547
 C         2.433821        -0.370525        -3.053558
 C         2.469230         0.928593        -3.794781
 C         1.183501         0.515263        -3.156327
 O         0.900617         0.937052        -1.791018
 C         2.035101         0.845614        -1.050363
 C         2.982476        -0.316092        -1.651359
 C         2.059585         0.350173         0.391823
 O         3.008924         0.300157         1.104749
 H         1.960932        -2.572276        -3.276669
 H         2.301554        -1.820236        -4.676688
 H         3.753644        -1.914114        -3.860809
 H         2.920445         1.804052        -3.436822
 H         2.275198         1.084315        -4.852086
 H         0.201130         0.283238        -3.621959
 H         2.714743         1.746627        -1.123991
 H         4.056616        -0.230118        -1.440322
 H         2.564266        -1.134710        -1.203160
 H         1.220402        -0.166968         0.682135
