19
Iteration:  3146charge 0 multiplicity 1
 C         2.751227        -1.790687        -3.650211
 C         2.464481        -0.383586        -3.044095
 C         2.025987         0.788640        -3.848999
 C         1.051056         0.239151        -2.842377
 O         0.980193         1.088112        -1.714126
 C         2.223029         0.945547        -1.037188
 C         3.326100         0.060370        -1.861706
 C         2.038193         0.485170         0.337960
 O         2.827939        -0.076384         1.013172
 H         3.803552        -2.200886        -3.405756
 H         2.019242        -2.503806        -3.227078
 H         2.430918        -1.800863        -4.734907
 H         2.422388         1.849603        -3.746974
 H         1.723364         0.579078        -4.835126
 H         0.184100        -0.306430        -3.156273
 H         2.733422         1.940785        -0.870696
 H         4.126477         0.890283        -2.196132
 H         3.786855        -0.811594        -1.248945
 H         0.902464         0.769520         0.648081
