19
Iteration:  1664
 C         2.680672        -1.826149        -3.836402
 C         2.374392        -0.357380        -3.263841
 C         2.015051         0.808977        -4.133620
 C         1.040983         0.417544        -2.912463
 O         1.162502         1.072626        -1.656985
 C         2.357001         0.827506        -0.961082
 C         3.244535        -0.152702        -1.864337
 C         2.207615         0.156817         0.430094
 O         2.597077         0.446833         1.484164
 H         3.675783        -1.827280        -4.182924
 H         2.626179        -2.609552        -3.127610
 H         1.971171        -2.045473        -4.716267
 H         2.671844         1.748293        -3.968898
 H         1.597457         0.592884        -5.119854
 H         0.079169        -0.134874        -3.104027
 H         2.826219         1.850287        -0.701593
 H         4.282409         0.175951        -1.972282
 H         3.119610        -1.094416        -1.324642
 H         1.574911        -0.709027         0.151529
