19
Iteration:  2752
 C         2.408437        -1.628719        -3.989888
 C         2.454154        -0.441168        -3.072452
 C         2.230867         0.852569        -3.858205
 C         1.172296         0.312727        -2.841269
 O         1.029160         0.881395        -1.603241
 C         2.376886         0.774834        -1.094652
 C         3.259563        -0.213152        -1.808423
 C         2.242303         0.106735         0.291006
 O         2.552258         0.704241         1.324736
 H         3.430055        -2.066780        -4.035902
 H         1.677552        -2.415962        -3.647753
 H         1.859109        -1.571148        -4.956369
 H         2.900548         1.581096        -3.569368
 H         2.144666         0.938559        -4.991774
 H         0.247904        -0.195014        -3.215804
 H         2.852713         1.752973        -0.908657
 H         4.244505         0.238910        -2.240975
 H         3.450925        -1.135821        -1.162204
 H         1.772509        -0.910318         0.340652
