19
Iteration:  3964
 C         2.616317        -1.777640        -3.678099
 C         2.476041        -0.315514        -3.135759
 C         2.114588         0.949906        -3.933632
 C         1.122627         0.401418        -2.970704
 O         1.011157         1.039868        -1.789192
 C         2.341704         0.715958        -0.966599
 C         3.131137        -0.282252        -1.787630
 C         2.031670         0.334656         0.370504
 O         2.893090         0.316607         1.203815
 H         3.634901        -2.067111        -3.873149
 H         2.174344        -2.539991        -2.995766
 H         2.215522        -1.810165        -4.740407
 H         2.312311         1.944047        -3.577475
 H         1.810221         0.847840        -4.991029
 H         0.219106        -0.224235        -3.309842
 H         2.857150         1.721319        -0.806729
 H         4.173887        -0.034020        -1.564283
 H         2.821316        -1.250763        -1.362866
 H         0.936375         0.136666         0.463736
