19
Iteration:  3446
 C         2.687983        -1.756940        -3.594779
 C         2.387958        -0.442636        -3.131410
 C         1.981146         0.867403        -4.014102
 C         1.094763         0.353076        -3.016536
 O         1.039910         0.972248        -1.726172
 C         2.372937         0.867414        -1.006900
 C         3.275980         0.028655        -1.926901
 C         1.971511         0.458500         0.436932
 O         2.798811         0.033683         1.302222
 H         3.743760        -1.627643        -3.893801
 H         2.825625        -2.656753        -2.922238
 H         2.314098        -2.162032        -4.477104
 H         2.525507         1.738361        -3.775411
 H         1.831662         0.690598        -5.128889
 H         0.143561        -0.083412        -3.281001
 H         2.636157         1.919586        -0.945294
 H         4.125185         0.625034        -2.355878
 H         3.853199        -0.816579        -1.441522
 H         0.932981         0.502768         0.709518
