19
Iteration:  2831
 C         2.550995        -1.572549        -4.124928
 C         2.430915        -0.482088        -3.143528
 C         2.241388         0.949660        -3.873648
 C         1.160787         0.268545        -2.920201
 O         1.037649         0.825656        -1.629401
 C         2.350814         0.675471        -0.973771
 C         3.069276        -0.451989        -1.750561
 C         2.080541         0.285440         0.402887
 O         2.767596         0.789545         1.339704
 H         3.486175        -1.532160        -4.608607
 H         2.625004        -2.568341        -3.665747
 H         1.917838        -1.413216        -4.998386
 H         2.727534         1.910262        -3.518217
 H         2.007865         0.929993        -4.901367
 H         0.201438         0.060921        -3.332859
 H         2.916881         1.588721        -0.858404
 H         4.113647        -0.267342        -1.633013
 H         2.846034        -1.433476        -1.267816
 H         1.280875        -0.439811         0.691491
