19
Iteration:  2862charge 0 multiplicity 1
 C         2.598842        -1.577164        -4.162938
 C         2.431621        -0.526220        -3.093828
 C         2.301099         0.951767        -3.672524
 C         1.119391         0.321062        -3.039424
 O         0.904777         0.760039        -1.705608
 C         2.257284         0.708436        -1.036076
 C         3.018450        -0.472026        -1.663629
 C         2.190388         0.409443         0.401138
 O         2.873803         0.712395         1.287893
 H         3.625281        -1.421356        -4.635146
 H         2.515543        -2.586241        -3.724111
 H         1.790862        -1.620494        -4.931773
 H         2.771895         1.798187        -3.128088
 H         2.225938         1.031587        -4.699423
 H         0.131850         0.393986        -3.449338
 H         2.709290         1.737377        -0.970320
 H         4.111038        -0.134370        -1.543185
 H         3.009899        -1.465782        -1.084788
 H         1.269366        -0.332852         0.717465
