19
Iteration:  1575charge 0 multiplicity 1
 C         2.391614        -1.732536        -3.772905
 C         2.468406        -0.307241        -3.178543
 C         2.016718         0.844043        -4.038673
 C         1.164950         0.292476        -2.909432
 O         1.203924         0.936306        -1.656519
 C         2.580729         0.788036        -1.001845
 C         3.357632        -0.046181        -1.970878
 C         2.208197         0.131369         0.338639
 O         2.377224         0.479588         1.512061
 H         3.370603        -2.047294        -4.219138
 H         2.141737        -2.479070        -3.103124
 H         1.664047        -1.737718        -4.609306
 H         2.259901         1.866028        -4.078145
 H         1.775927         0.460289        -5.148572
 H         0.309469        -0.355355        -2.987247
 H         2.900536         1.861539        -0.871257
 H         4.111108         0.701808        -2.344398
 H         3.814870        -0.917840        -1.517211
 H         1.715379        -0.897918         0.266122
