19
Iteration:  3010
 C         2.727938        -1.754896        -3.762637
 C         2.478065        -0.313762        -3.223639
 C         2.060584         0.943080        -3.991385
 C         1.067109         0.373619        -3.002514
 O         0.974423         0.857523        -1.703977
 C         2.311688         0.760941        -0.976424
 C         3.208169        -0.219056        -1.830111
 C         1.993587         0.468251         0.490802
 O         2.886005         0.252076         1.271747
 H         3.711523        -1.934962        -4.149516
 H         2.620555        -2.529321        -2.951473
 H         1.975444        -1.935029        -4.536783
 H         2.377904         2.000936        -3.615700
 H         1.831388         0.883130        -5.020506
 H         0.127255        -0.022949        -3.327177
 H         2.688387         1.809594        -1.034130
 H         4.234846         0.232350        -1.839991
 H         3.121528        -1.121781        -1.205792
 H         1.006293         0.500075         0.803893
