19
Iteration:  1893
 C         2.511953        -1.580609        -3.977879
 C         2.498515        -0.389692        -3.119511
 C         2.320728         0.909624        -3.855464
 C         1.143220         0.321551        -2.957490
 O         0.980206         0.640728        -1.628252
 C         2.301038         0.796004        -1.078949
 C         3.114092        -0.311843        -1.712869
 C         2.026708         0.446841         0.426990
 O         2.845306         0.552293         1.271729
 H         3.582207        -1.833127        -4.339116
 H         2.052905        -2.421586        -3.476879
 H         1.868715        -1.487535        -4.963224
 H         2.919143         1.684292        -3.508499
 H         2.090683         0.763400        -4.953323
 H         0.179160         0.115439        -3.334399
 H         2.683685         1.847838        -1.318713
 H         4.197880        -0.161122        -1.742570
 H         2.901831        -1.242487        -1.132938
 H         0.949566         0.082817         0.443693
