19
Iteration:   624charge 0 multiplicity 1
 C         2.673238        -1.757628        -3.778555
 C         2.415809        -0.425721        -3.120121
 C         2.383455         0.874656        -3.896285
 C         1.168492         0.444100        -3.057302
 O         1.017496         1.093919        -1.768648
 C         2.122547         0.791223        -0.981110
 C         2.962817        -0.319972        -1.682834
 C         1.933897         0.349784         0.468041
 O         2.955538         0.320509         1.146585
 H         2.639328        -2.588033        -3.123795
 H         2.069870        -1.808128        -4.628031
 H         3.816789        -1.833616        -4.107499
 H         2.864365         1.768932        -3.609253
 H         2.134381         0.784420        -4.957539
 H         0.121740         0.138949        -3.415041
 H         2.725105         1.729479        -0.941418
 H         4.037596        -0.243226        -1.593736
 H         2.720708        -1.266943        -1.284467
 H         1.004704        -0.042941         0.844787
