19
Iteration:  2998
 C         2.709394        -1.686687        -3.770586
 C         2.487438        -0.321905        -3.224290
 C         2.065403         0.995709        -3.957985
 C         1.137658         0.235285        -3.015467
 O         0.960851         0.942172        -1.691261
 C         2.192089         0.706913        -1.057357
 C         3.137151        -0.257013        -1.850365
 C         2.037488         0.461395         0.531282
 O         2.923579         0.291184         1.321719
 H         3.768020        -1.802695        -3.915640
 H         2.400749        -2.342498        -2.888796
 H         2.236812        -2.023306        -4.710832
 H         2.660064         1.951133        -3.706444
 H         1.747807         0.927934        -4.995018
 H         0.254448        -0.241433        -3.416818
 H         2.808956         1.663859        -1.015451
 H         4.186064         0.075854        -1.860978
 H         3.200937        -1.358165        -1.550086
 H         1.009735         0.550257         0.770030
