19
Iteration:  2985
 C         2.717460        -1.668011        -3.848202
 C         2.444470        -0.333974        -3.173327
 C         2.100522         0.918466        -3.920033
 C         1.125914         0.307496        -2.980286
 O         0.979357         0.854660        -1.768106
 C         2.240387         0.725895        -0.968955
 C         3.046875        -0.217919        -1.821659
 C         2.043269         0.454804         0.449414
 O         2.960348         0.336411         1.335073
 H         3.792449        -1.902583        -3.820177
 H         2.144488        -2.595970        -3.397095
 H         2.362256        -1.587438        -4.920179
 H         2.506388         1.842882        -3.501429
 H         2.165044         0.791598        -5.053177
 H         0.191788        -0.209078        -3.262053
 H         2.709576         1.773872        -0.974879
 H         4.063604         0.120342        -1.882862
 H         2.995995        -1.281738        -1.294297
 H         1.033276         0.487988         0.850149
