19
Iteration:  1535
 C         2.613930        -1.847794        -3.714694
 C         2.304580        -0.422763        -3.141572
 C         2.081897         0.899778        -3.969049
 C         1.088674         0.449203        -2.847402
 O         1.165812         1.063373        -1.574878
 C         2.465059         0.749822        -0.996051
 C         3.221619        -0.055018        -2.021050
 C         2.293719        -0.008090         0.261887
 O         2.400714         0.530166         1.329636
 H         3.650440        -1.882293        -3.963273
 H         2.394720        -2.548249        -2.831857
 H         2.118949        -2.125446        -4.735289
 H         2.671635         1.750583        -3.888079
 H         1.731664         0.751991        -4.996696
 H         0.149388         0.088842        -3.150384
 H         3.105206         1.625086        -0.772327
 H         4.100755         0.417798        -2.358350
 H         3.783756        -0.934397        -1.670414
 H         2.004422        -1.068517         0.094548
