19
Iteration:  4954charge 0 multiplicity 1
 C         2.545426        -1.794030        -3.907974
 C         2.369742        -0.431025        -3.122646
 C         2.262669         0.979930        -3.828179
 C         1.171689         0.408576        -3.034491
 O         1.075186         0.920910        -1.706765
 C         2.386617         0.714521        -0.999050
 C         3.050857        -0.369555        -1.820219
 C         1.999973         0.403197         0.424280
 O         2.823037         0.515150         1.322508
 H         3.620179        -1.784968        -4.337696
 H         2.358900        -2.740976        -3.305283
 H         1.783507        -1.837419        -4.771911
 H         2.771112         1.885740        -3.405394
 H         2.080954         1.033264        -4.889332
 H         0.128128         0.085545        -3.369341
 H         3.020055         1.663963        -1.089808
 H         4.088771        -0.289132        -1.969801
 H         2.980973        -1.372344        -1.260087
 H         0.979549         0.186044         0.669103
