19
Iteration:  1041
 C         2.496629        -1.796083        -3.690205
 C         2.444988        -0.366508        -3.128630
 C         2.280886         1.044587        -3.857830
 C         1.220966         0.379546        -2.997973
 O         1.000289         0.854256        -1.728192
 C         2.258832         0.795572        -1.036807
 C         3.105847        -0.219162        -1.812979
 C         1.964466         0.385607         0.388564
 O         2.921511         0.284134         1.152810
 H         3.150970        -1.890667        -4.457388
 H         3.124968        -2.360667        -3.013678
 H         1.467883        -2.303267        -3.603183
 H         2.715479         2.074225        -3.454891
 H         1.919793         1.058060        -4.888852
 H         0.368064         0.082969        -3.483604
 H         2.668698         1.839645        -0.919130
 H         4.160115         0.076118        -2.019550
 H         3.156272        -1.138138        -1.316621
 H         0.876736         0.399265         0.644879
