19
Iteration:  2946charge 0 multiplicity 1
 C         2.643506        -1.640296        -4.070056
 C         2.490374        -0.483597        -3.069581
 C         2.300952         0.905013        -3.750055
 C         1.086864         0.278510        -2.921008
 O         0.920955         0.773004        -1.606266
 C         2.215327         0.817764        -1.102733
 C         3.028058        -0.265205        -1.747976
 C         2.018317         0.468173         0.384244
 O         2.989194         0.463093         1.220245
 H         3.619103        -2.174563        -4.016288
 H         1.953187        -2.401940        -3.893362
 H         2.637614        -1.117013        -4.992488
 H         2.891745         1.807001        -3.404894
 H         1.974276         0.930080        -4.736510
 H         0.236565        -0.179464        -3.390505
 H         2.554477         1.839135        -1.089308
 H         4.091894         0.115707        -1.620772
 H         2.893661        -1.132697        -1.189259
 H         0.812899         0.306738         0.499366
