19
Iteration:  4789
 C         2.446134        -1.638929        -3.919112
 C         2.389617        -0.456219        -3.113285
 C         2.203592         0.806094        -3.948448
 C         1.184361         0.349412        -2.946425
 O         1.240582         1.098577        -1.731729
 C         2.320970         0.616565        -0.959901
 C         3.231791        -0.292633        -1.827422
 C         1.994813         0.259972         0.434018
 O         2.660136         0.583296         1.353517
 H         3.509383        -1.858592        -4.316008
 H         2.360197        -2.578663        -3.331113
 H         1.628853        -1.922737        -4.655716
 H         2.685845         1.701981        -3.674179
 H         1.838096         0.873516        -4.921428
 H         0.170666        -0.004109        -3.092962
 H         2.992490         1.402971        -0.739995
 H         4.133070         0.263580        -2.041371
 H         3.547080        -1.361360        -1.633656
 H         1.093878        -0.402987         0.489091
