19
Iteration:  3301
 C         2.753919        -1.818910        -3.561952
 C         2.583680        -0.309498        -3.098909
 C         1.881873         0.822485        -3.982281
 C         1.075990         0.220080        -2.895579
 O         1.042138         1.057213        -1.752968
 C         2.333915         1.029640        -1.064140
 C         3.281132         0.077890        -1.834115
 C         2.096710         0.524485         0.388196
 O         2.683868        -0.187796         1.116505
 H         3.685365        -2.164866        -4.044563
 H         2.391505        -2.565775        -2.856526
 H         2.146096        -1.954072        -4.432575
 H         2.166756         1.823187        -3.816912
 H         1.519960         0.531507        -4.987529
 H         0.221059        -0.483408        -2.957370
 H         2.767559         2.057390        -0.970126
 H         4.180070         0.720674        -2.167513
 H         3.790419        -0.616269        -1.135356
 H         1.052538         0.914394         0.788378
