19
Iteration:   148charge 0 multiplicity 1
 C         2.548873        -1.652803        -4.175393
 C         2.483943        -0.422716        -3.232943
 C         2.280531         0.999915        -3.923971
 C         1.180411         0.339781        -2.966165
 O         1.096182         0.813072        -1.590273
 C         2.367967         0.571228        -0.953840
 C         3.097145        -0.487349        -1.841626
 C         2.013004         0.284393         0.541985
 O         2.647383         0.901609         1.450936
 H         2.340877        -2.447286        -3.582939
 H         1.738071        -1.753515        -4.983624
 H         3.569794        -1.761693        -4.610546
 H         2.715825         1.966198        -3.596345
 H         2.145803         0.677512        -4.948947
 H         0.147641         0.080635        -3.202355
 H         2.975670         1.463600        -1.014576
 H         4.229712        -0.460499        -1.832851
 H         2.919527        -1.575669        -1.486057
 H         1.280867        -0.455702         0.782913
