19
Iteration:  2113
 C         2.439694        -1.689756        -3.712734
 C         2.454385        -0.383883        -2.989410
 C         2.057123         0.702402        -3.998040
 C         1.149509         0.341062        -2.863039
 O         1.129471         1.057866        -1.654951
 C         2.389041         0.812559        -1.009092
 C         3.471306        -0.022219        -1.940256
 C         2.063875         0.067539         0.205484
 O         2.546553         0.461329         1.316650
 H         3.405119        -1.858436        -4.313632
 H         2.259506        -2.633340        -3.178558
 H         1.857648        -1.614254        -4.649819
 H         2.587130         1.619016        -3.902455
 H         1.724987         0.536982        -4.975085
 H         0.178475        -0.220438        -2.970145
 H         3.029584         1.642072        -0.711637
 H         4.222652         0.658486        -2.200922
 H         3.912016        -0.914558        -1.368676
 H         1.326505        -0.705591         0.035984
