19
Iteration:  4809
 C         2.455344        -1.763324        -3.942711
 C         2.457027        -0.419950        -3.135446
 C         2.119254         0.887252        -3.912573
 C         1.138523         0.327354        -2.945196
 O         1.214478         1.086745        -1.758920
 C         2.461007         0.757713        -0.992256
 C         3.234241        -0.302777        -1.822025
 C         1.992194         0.219872         0.450128
 O         2.637054         0.554260         1.386490
 H         3.337522        -2.036187        -4.645594
 H         2.346333        -2.750799        -3.469055
 H         1.483863        -1.788280        -4.548288
 H         2.538433         1.824575        -3.604955
 H         2.237976         0.756949        -4.931113
 H         0.222736        -0.030358        -3.266192
 H         2.996893         1.711831        -0.782004
 H         4.326524        -0.046548        -1.995482
 H         3.134757        -1.203095        -1.141524
 H         1.086746        -0.413092         0.607499
