19
Iteration:  3924
 C         2.495616        -1.762146        -3.865790
 C         2.483450        -0.459045        -3.137940
 C         2.220980         0.749335        -3.974237
 C         1.111920         0.413238        -2.993501
 O         1.001854         1.003565        -1.659917
 C         2.381099         0.882440        -0.997765
 C         3.194950        -0.085440        -1.776654
 C         2.039404         0.334241         0.394766
 O         2.774895         0.295676         1.360615
 H         3.505148        -1.691950        -4.464110
 H         2.580401        -2.664102        -3.303096
 H         1.776135        -1.825037        -4.633973
 H         2.806314         1.597413        -3.761555
 H         1.737796         0.644990        -5.033613
 H         0.146526         0.045286        -3.304712
 H         2.902797         1.821329        -0.959131
 H         4.194633         0.293444        -2.158174
 H         3.422984        -1.004804        -1.259022
 H         0.994003        -0.133691         0.548109
