19
Iteration:  2051
 C         2.596413        -1.725735        -3.683988
 C         2.419533        -0.354008        -3.166352
 C         2.016329         0.832119        -4.120231
 C         1.102294         0.423359        -2.938177
 O         1.183183         1.011522        -1.631451
 C         2.442608         0.802982        -0.956663
 C         3.286202        -0.134921        -1.967173
 C         2.136672         0.056480         0.324731
 O         2.538643         0.477171         1.432172
 H         3.540786        -1.835862        -4.145632
 H         2.425987        -2.469453        -2.840226
 H         1.791825        -1.926122        -4.316681
 H         2.543600         1.731326        -4.256351
 H         1.669157         0.354411        -5.110143
 H         0.058707         0.066771        -3.112990
 H         2.879805         1.740771        -0.911285
 H         4.282516         0.311359        -2.087248
 H         3.491246        -1.133598        -1.614282
 H         1.389462        -0.710257         0.345502
