19
Iteration:  1178charge 0 multiplicity 1
 C         2.430946        -1.687524        -3.982770
 C         2.474486        -0.435306        -3.152308
 C         2.390227         0.962107        -3.798663
 C         1.175313         0.342189        -3.018399
 O         0.844845         0.802081        -1.660833
 C         2.213965         0.667829        -0.963932
 C         3.160653        -0.273164        -1.805428
 C         2.102525         0.209523         0.442157
 O         2.917900         0.715887         1.261388
 H         3.320472        -2.282770        -3.706877
 H         1.677612        -2.435536        -3.688419
 H         2.244518        -1.584224        -5.013700
 H         3.019338         1.808884        -3.369780
 H         2.298035         1.189346        -4.815943
 H         0.253594         0.141117        -3.627008
 H         2.537971         1.680891        -0.936615
 H         4.104482         0.288777        -1.935577
 H         3.333812        -1.319456        -1.290024
 H         1.252609        -0.456553         0.788954
