19
Iteration:  1551charge 0 multiplicity 1
 C         2.545834        -1.822167        -3.747798
 C         2.350709        -0.396114        -3.292495
 C         2.013254         0.786083        -4.052838
 C         1.160602         0.418700        -2.873769
 O         1.165325         1.024145        -1.550687
 C         2.498192         0.831191        -0.988998
 C         3.349789        -0.042278        -2.052119
 C         2.247292         0.039399         0.376762
 O         2.378784         0.492240         1.437338
 H         3.658901        -2.012794        -3.957324
 H         2.310340        -2.600308        -3.057795
 H         1.973516        -2.033765        -4.569041
 H         2.875842         1.622377        -3.920777
 H         1.496058         0.987560        -5.028817
 H         0.044384         0.310573        -3.165473
 H         2.761664         1.839998        -0.691128
 H         4.225908         0.644937        -2.434356
 H         3.543457        -0.970388        -1.478361
 H         2.030427        -1.080055         0.360216
