19
Iteration:  4256
 C         2.508122        -1.716409        -3.927989
 C         2.447980        -0.370706        -3.198333
 C         2.084885         0.985122        -3.976551
 C         1.200380         0.338436        -2.924696
 O         1.172442         0.947872        -1.649569
 C         2.457735         0.774686        -1.033679
 C         3.121626        -0.444419        -1.854404
 C         2.164079         0.316223         0.407508
 O         2.582156         0.587266         1.452307
 H         3.443486        -1.909236        -4.418274
 H         2.420880        -2.532098        -3.153915
 H         1.541640        -1.785857        -4.517108
 H         2.574415         1.910165        -3.625920
 H         1.894665         0.824660        -4.974964
 H         0.263926        -0.030541        -3.165293
 H         3.196043         1.544330        -1.196943
 H         4.185133        -0.496038        -1.974007
 H         2.988054        -1.505100        -1.420576
 H         1.226317        -0.421510         0.369114
