19
Iteration:  3961charge 0 multiplicity 1
 C         2.612197        -1.774778        -3.677478
 C         2.500319        -0.297642        -3.162582
 C         2.097357         0.922558        -3.919342
 C         1.106369         0.389406        -2.990800
 O         1.014087         1.047999        -1.794376
 C         2.352975         0.718184        -0.973945
 C         3.147286        -0.295634        -1.778157
 C         1.988955         0.346575         0.362015
 O         2.907523         0.314822         1.220424
 H         3.669468        -1.962947        -3.848535
 H         2.178706        -2.536272        -2.933193
 H         2.097707        -1.868019        -4.715482
 H         2.323817         2.011824        -3.596481
 H         1.852570         1.000707        -4.918743
 H         0.162701        -0.158849        -3.214969
 H         2.966647         1.644409        -0.801187
 H         4.174997        -0.012897        -1.641085
 H         2.921646        -1.308863        -1.268524
 H         0.872369         0.026603         0.456253
