19
Iteration:  4019charge 0 multiplicity 1
 C         2.514286        -1.708868        -3.923726
 C         2.449775        -0.478406        -3.174492
 C         2.338441         0.928333        -3.803949
 C         1.143309         0.323317        -2.952448
 O         0.949135         0.871439        -1.696987
 C         2.177892         0.786030        -1.034881
 C         3.113756        -0.269221        -1.805576
 C         1.987962         0.530921         0.476590
 O         2.969272         0.337389         1.236459
 H         3.551246        -2.075148        -3.873450
 H         1.918571        -2.559271        -3.494213
 H         2.288804        -1.623768        -5.045057
 H         2.993542         1.585306        -3.360695
 H         2.114746         0.888056        -4.932006
 H         0.178647         0.190771        -3.493264
 H         2.755731         1.774262        -1.007463
 H         4.007217         0.399825        -1.902472
 H         3.519154        -1.063618        -1.109499
 H         0.897545         0.531135         0.867508
