19
Iteration:  3211charge 0 multiplicity 1
 C         2.733473        -1.813736        -3.451717
 C         2.433171        -0.352344        -3.098516
 C         2.005913         0.887415        -4.008565
 C         1.079866         0.339036        -2.933410
 O         0.978128         0.967978        -1.703815
 C         2.269761         0.908732        -1.053882
 C         3.305877         0.107856        -1.886588
 C         2.085671         0.520100         0.342453
 O         2.774952        -0.173503         1.077796
 H         3.616587        -1.675870        -4.138420
 H         2.944156        -2.322227        -2.528782
 H         1.937818        -2.424471        -3.958534
 H         2.629558         1.841678        -3.992932
 H         1.592358         0.661335        -4.955530
 H         0.171642        -0.170171        -3.166708
 H         2.435742         2.035934        -0.881718
 H         4.344295         0.605366        -2.158910
 H         3.703257        -0.731797        -1.242005
 H         1.230153         1.026222         0.771508
