19
Iteration:  2262charge 0 multiplicity 1
 C         2.602927        -1.784986        -3.565973
 C         2.501777        -0.313303        -3.236825
 C         2.035787         0.833947        -4.150661
 C         1.141522         0.468889        -2.934033
 O         1.062306         0.993093        -1.631595
 C         2.356496         0.782081        -1.000368
 C         3.315167        -0.068899        -1.906598
 C         1.925264         0.251084         0.371355
 O         2.753353         0.262083         1.363648
 H         3.629733        -2.047732        -3.841967
 H         2.294804        -2.414396        -2.774607
 H         1.832789        -2.055585        -4.345563
 H         2.848971         1.658108        -4.161347
 H         1.686116         0.380193        -5.151675
 H         0.171809         0.109728        -3.351452
 H         2.717005         1.824378        -0.832933
 H         4.291663         0.417576        -2.212738
 H         3.648372        -1.024661        -1.543241
 H         0.905538        -0.211490         0.246274
