19
Iteration:  1616charge 0 multiplicity 1
 C         2.537195        -1.748345        -3.887063
 C         2.471557        -0.411680        -3.135901
 C         1.986672         0.833616        -3.928069
 C         1.144416         0.246650        -2.814074
 O         1.201300         1.092881        -1.594840
 C         2.485495         0.796173        -0.973001
 C         3.333724        -0.126129        -1.889842
 C         2.066748         0.095554         0.220233
 O         2.495028         0.540803         1.323852
 H         3.482256        -1.835155        -4.511135
 H         2.590373        -2.568883        -3.152589
 H         1.646717        -1.918013        -4.395069
 H         2.349839         1.761220        -3.533168
 H         1.664199         0.627752        -4.974828
 H         0.109601        -0.074327        -3.056356
 H         3.074079         1.641488        -0.786620
 H         4.116695         0.558331        -2.282587
 H         3.675439        -1.044121        -1.378228
 H         1.461728        -0.765192        -0.033713
