19
Iteration:  1524
 C         2.600874        -1.739796        -3.672555
 C         2.339611        -0.375664        -3.068060
 C         2.013107         0.877927        -3.883058
 C         1.061864         0.386069        -2.917404
 O         1.207568         1.059004        -1.618532
 C         2.459249         0.746069        -1.094903
 C         3.326217        -0.099458        -1.992585
 C         2.293606        -0.037311         0.209095
 O         2.415373         0.526601         1.322422
 H         3.620143        -1.871561        -3.922631
 H         2.380587        -2.656443        -2.987685
 H         1.830214        -1.958948        -4.535751
 H         2.563119         1.728390        -3.672328
 H         1.905539         0.650450        -4.938992
 H         0.073829         0.199576        -3.188743
 H         2.820996         1.754005        -0.826506
 H         4.121234         0.471753        -2.353205
 H         3.430068        -1.029508        -1.409163
 H         1.771200        -0.999383         0.269520
