19
Iteration:  1063
 C         2.627548        -1.756207        -3.872792
 C         2.401327        -0.434829        -3.145144
 C         2.250069         0.856326        -3.912169
 C         1.077716         0.391521        -2.998028
 O         0.961531         0.959935        -1.681810
 C         2.276411         0.882649        -1.056365
 C         3.113521        -0.216117        -1.719495
 C         2.033990         0.476535         0.405391
 O         2.919320         0.237176         1.296349
 H         3.331460        -1.649754        -4.607915
 H         3.044786        -2.584502        -3.329221
 H         1.557236        -2.080464        -4.051889
 H         2.925115         1.803410        -3.680786
 H         2.112300         0.765147        -5.001369
 H         0.239270         0.088392        -3.466215
 H         2.803000         1.882203        -1.019592
 H         4.212354        -0.051557        -1.657927
 H         2.899701        -1.123890        -1.273507
 H         1.038817         0.138674         0.500970
