19
Iteration:  1103
 C         2.670479        -1.664315        -3.992046
 C         2.398600        -0.416529        -3.097793
 C         2.097233         0.845852        -3.879636
 C         1.069875         0.256376        -2.937839
 O         1.105050         1.044037        -1.752364
 C         2.351730         0.699450        -0.962921
 C         3.158567        -0.338960        -1.736352
 C         1.947336         0.479276         0.446815
 O         2.883150         0.395631         1.284055
 H         3.849503        -1.769662        -4.360530
 H         2.310902        -2.629851        -3.555416
 H         2.169393        -1.660691        -4.944331
 H         2.419970         1.925672        -3.727786
 H         1.920107         0.865749        -4.953917
 H         0.001300         0.040841        -3.248744
 H         2.931297         1.662463        -0.924976
 H         4.253940        -0.210403        -1.866604
 H         2.835397        -1.352614        -1.200530
 H         0.802088         0.502266         0.856152
