19
Iteration:  3734
 C         2.516733        -1.742530        -4.078629
 C         2.426848        -0.459924        -3.270877
 C         2.278009         1.049406        -3.823546
 C         1.154595         0.380874        -3.019577
 O         0.975647         0.730488        -1.611698
 C         2.357835         0.668708        -1.010838
 C         3.112827        -0.394806        -1.826100
 C         2.179505         0.310385         0.484520
 O         2.717046         0.796508         1.473414
 H         3.477696        -1.571804        -4.522986
 H         2.472161        -2.691811        -3.522339
 H         1.815258        -1.728041        -4.970865
 H         3.023252         1.647524        -3.367234
 H         2.029921         1.153353        -4.959080
 H         0.209677         0.195743        -3.453416
 H         2.738226         1.691242        -1.097679
 H         4.158984        -0.198494        -1.698549
 H         2.930584        -1.415356        -1.466665
 H         1.366348        -0.510451         0.484485
