19
Iteration:  1520charge 0 multiplicity 1
 C         2.563468        -1.711167        -3.658054
 C         2.362573        -0.390546        -3.094497
 C         2.019215         0.868523        -3.889306
 C         1.049689         0.366299        -2.907942
 O         1.190676         1.051502        -1.652905
 C         2.485215         0.762916        -1.092311
 C         3.349228        -0.112021        -1.959638
 C         2.252834        -0.030618         0.210993
 O         2.431944         0.528520         1.328782
 H         3.647931        -1.820706        -4.030838
 H         2.368973        -2.518367        -3.020111
 H         1.879381        -1.867572        -4.487772
 H         2.553962         1.763003        -3.487386
 H         1.824125         0.629381        -4.967510
 H        -0.035847         0.137817        -3.076024
 H         2.828749         1.794778        -0.766971
 H         4.288107         0.382942        -2.340356
 H         3.522284        -1.011145        -1.411020
 H         1.790988        -1.060117         0.124976
