19
Iteration:   508charge 0 multiplicity 1
 C         2.618274        -1.694246        -3.940779
 C         2.468072        -0.419396        -3.144525
 C         2.263407         0.953903        -3.835795
 C         1.222767         0.355597        -2.999774
 O         1.006097         0.782298        -1.647087
 C         2.254410         0.845975        -1.107691
 C         3.048937        -0.439429        -1.692967
 C         2.060705         0.774079         0.421804
 O         2.726572         0.214635         1.266137
 H         2.433911        -2.669703        -3.430548
 H         2.278619        -1.628995        -5.018123
 H         3.614213        -1.785465        -4.012063
 H         2.958532         1.717693        -3.587371
 H         2.077109         0.787321        -4.914585
 H         0.260439         0.072585        -3.523987
 H         2.721628         1.812286        -1.224673
 H         4.164418        -0.122336        -1.711173
 H         2.954664        -1.419188        -1.045388
 H         1.193876         1.496480         0.822271
