19
Iteration:  1784
 C         2.773395        -1.678275        -3.982049
 C         2.517670        -0.419772        -3.062605
 C         2.130841         0.970772        -3.772232
 C         1.116610         0.271952        -3.009902
 O         0.928191         0.961405        -1.733842
 C         2.180857         0.744225        -1.013257
 C         3.027106        -0.472516        -1.629339
 C         1.977809         0.536874         0.429867
 O         3.009755         0.430627         1.139516
 H         3.838204        -1.790029        -4.299612
 H         2.657922        -2.542578        -3.394704
 H         2.089907        -1.675026        -4.908245
 H         2.589830         1.936987        -3.390776
 H         2.059898         1.087462        -4.858989
 H         0.137011        -0.132858        -3.413019
 H         2.773570         1.623191        -1.074512
 H         4.128574        -0.406482        -1.556985
 H         2.685830        -1.465744        -1.315086
 H         0.967799         0.397393         0.852571
