19
Iteration:  1445
 C         2.645856        -1.756141        -3.814513
 C         2.406869        -0.380362        -3.177163
 C         2.072523         0.796028        -3.981569
 C         1.084093         0.328077        -2.913939
 O         1.191377         1.066188        -1.719746
 C         2.385155         0.668905        -0.997368
 C         3.251016        -0.069646        -1.963706
 C         1.943384         0.285068         0.437237
 O         2.720249         0.367444         1.431919
 H         3.511670        -1.866999        -4.537101
 H         2.667645        -2.553956        -3.075122
 H         1.768838        -1.994644        -4.496798
 H         2.561852         1.679456        -3.658108
 H         1.630183         0.642254        -4.918266
 H         0.050060         0.030990        -3.216657
 H         2.815911         1.678734        -0.699001
 H         4.179497         0.443546        -2.164246
 H         3.610131        -0.985594        -1.523656
 H         0.780667         0.267366         0.491304
