19
Iteration:  3049charge 0 multiplicity 1
 C         2.604198        -1.698437        -3.873327
 C         2.526337        -0.413774        -3.016107
 C         2.213667         0.751883        -3.863494
 C         1.111680         0.233495        -2.884920
 O         0.851290         0.921285        -1.660152
 C         2.269500         0.987526        -1.054489
 C         3.299474         0.011434        -1.820840
 C         2.037330         0.488686         0.386707
 O         2.835852         0.108505         1.176965
 H         3.359158        -1.591510        -4.681474
 H         2.526523        -2.668380        -3.357952
 H         1.628923        -1.918791        -4.375718
 H         2.604576         1.695153        -3.532078
 H         2.134393         0.794846        -4.968080
 H         0.192130        -0.253811        -3.244440
 H         2.628612         2.016470        -1.026248
 H         4.271291         0.350675        -2.055495
 H         3.643796        -0.932765        -1.347080
 H         0.893819         0.434004         0.501209
