19
Iteration:  4527charge 0 multiplicity 1
 C         2.441454        -1.729722        -3.931001
 C         2.521576        -0.434391        -3.089429
 C         2.321756         1.010372        -3.734946
 C         1.209567         0.350193        -3.038159
 O         0.965184         0.797795        -1.691111
 C         2.218873         0.734024        -1.043505
 C         3.086807        -0.406924        -1.695509
 C         1.966339         0.564969         0.384686
 O         2.959961         0.441899         1.161017
 H         3.432110        -2.135568        -4.080792
 H         1.834787        -2.454275        -3.488091
 H         2.037501        -1.461842        -4.901213
 H         2.839508         1.873144        -3.299428
 H         2.668064         1.163602        -4.782982
 H         0.193442        -0.038164        -3.388426
 H         2.681592         1.753865        -1.276083
 H         4.085430        -0.086742        -1.574493
 H         2.869261        -1.311491        -1.193310
 H         0.988551         0.536114         0.896967
