19
Iteration:  1640
 C         2.675621        -1.741822        -3.819244
 C         2.286661        -0.414297        -3.127725
 C         2.013160         0.781245        -3.988965
 C         1.067301         0.419624        -2.889095
 O         1.187070         1.055750        -1.680030
 C         2.502754         0.819496        -1.062557
 C         3.234997        -0.137310        -2.002755
 C         2.166462         0.116149         0.398021
 O         2.517667         0.465330         1.521455
 H         3.633928        -1.460175        -4.326284
 H         2.946272        -2.494093        -3.208831
 H         1.964940        -2.110328        -4.518491
 H         2.611263         1.598283        -3.831292
 H         1.652577         0.363625        -5.023819
 H         0.120364         0.078811        -3.180935
 H         3.042607         1.764824        -0.982142
 H         4.176624         0.266124        -2.456367
 H         3.319585        -1.052244        -1.443006
 H         1.508887        -0.658100         0.090620
