19
Iteration:  1276
 C         2.608808        -1.515963        -4.134771
 C         2.430708        -0.439169        -3.150780
 C         2.195153         0.849905        -3.750126
 C         1.101366         0.255784        -2.969144
 O         1.095583         0.919441        -1.679487
 C         2.312667         0.566444        -0.995345
 C         3.077495        -0.588976        -1.763937
 C         1.961071         0.601403         0.463314
 O         2.870539         0.622313         1.353368
 H         3.530627        -1.434082        -4.841027
 H         2.764648        -2.557175        -3.719289
 H         1.744142        -1.563432        -4.777577
 H         2.559208         1.821595        -3.364943
 H         2.003332         0.786931        -4.847240
 H         0.115103         0.064758        -3.344491
 H         2.990067         1.521263        -1.147734
 H         4.164669        -0.388280        -1.771405
 H         3.088276        -1.639417        -1.458982
 H         0.962361         0.710763         0.769341
