19
Iteration:  4737charge 0 multiplicity 1
 C         2.408838        -1.768703        -3.753673
 C         2.438358        -0.400352        -3.166952
 C         2.263086         0.979524        -3.911442
 C         1.155642         0.326575        -3.013655
 O         1.088848         0.945919        -1.670159
 C         2.416473         0.909655        -1.105196
 C         3.144696        -0.288401        -1.876526
 C         2.180268         0.215892         0.303713
 O         2.632147         0.505092         1.482489
 H         3.359417        -2.173379        -3.965078
 H         1.945985        -2.571352        -3.227599
 H         1.942601        -1.806138        -4.743848
 H         2.901841         1.835338        -3.664548
 H         2.329627         0.814841        -5.021267
 H         0.069999        -0.021463        -3.170985
 H         2.931060         1.891894        -1.083496
 H         4.179320        -0.187269        -2.022156
 H         2.902323        -1.251856        -1.392314
 H         1.436998        -0.683926         0.246864
