19
Iteration:  1787
 C         2.796601        -1.676106        -3.996241
 C         2.502572        -0.421504        -3.057531
 C         2.149592         0.969873        -3.751852
 C         1.116959         0.256491        -2.993872
 O         0.919858         0.957262        -1.733598
 C         2.183864         0.775138        -1.007531
 C         3.021057        -0.486817        -1.630909
 C         1.956410         0.533484         0.413264
 O         3.029035         0.432989         1.134581
 H         3.739312        -1.801712        -4.405766
 H         2.578461        -2.624898        -3.483933
 H         2.171112        -1.639265        -4.855318
 H         2.482613         1.889108        -3.412056
 H         2.071805         1.136827        -4.884100
 H         0.189640        -0.098868        -3.355747
 H         2.840059         1.694415        -1.064382
 H         4.088845        -0.452317        -1.524421
 H         2.678612        -1.470628        -1.259905
 H         0.881363         0.460106         0.783853
