19
Iteration:  1670charge 0 multiplicity 1
 C         2.623149        -1.815521        -3.843979
 C         2.402160        -0.312754        -3.207732
 C         1.993550         0.814956        -4.079361
 C         1.119432         0.383302        -2.926087
 O         1.137370         1.051915        -1.681090
 C         2.374582         0.840387        -0.945271
 C         3.236601        -0.118560        -1.857044
 C         2.139495         0.105168         0.376052
 O         2.640560         0.479048         1.458184
 H         3.714928        -1.963240        -4.235572
 H         2.515466        -2.684445        -3.098442
 H         2.102520        -2.041863        -4.735043
 H         2.546516         1.675309        -3.989851
 H         1.695250         0.657692        -5.149739
 H         0.180463        -0.083448        -3.022688
 H         2.800816         1.793023        -0.805897
 H         4.333298         0.091131        -1.868701
 H         3.127350        -1.094258        -1.329458
 H         1.489588        -0.852220         0.269950
