19
Iteration:  2544charge 0 multiplicity 1
 C         2.483489        -1.669586        -3.791253
 C         2.518558        -0.374676        -3.097573
 C         2.231062         0.833166        -3.936571
 C         1.188147         0.265576        -3.006255
 O         1.022522         0.834581        -1.692918
 C         2.278631         0.937856        -1.005416
 C         3.159792        -0.135259        -1.708389
 C         1.939771         0.519304         0.412519
 O         2.899180         0.233340         1.148926
 H         3.439062        -1.890232        -4.081275
 H         2.035885        -2.602488        -3.306590
 H         1.725693        -1.475923        -4.613784
 H         2.736349         1.768045        -3.641962
 H         2.165270         0.414631        -4.891926
 H         0.326065        -0.325324        -3.278191
 H         2.642188         1.979233        -0.893683
 H         4.247773         0.201746        -1.800556
 H         3.110197        -1.058993        -1.126154
 H         0.862289         0.124407         0.588994
