19
Iteration:  4501
 C         2.523219        -1.680011        -4.001725
 C         2.424811        -0.487652        -3.142424
 C         2.349099         0.852123        -3.924439
 C         1.196525         0.361208        -3.018610
 O         0.889635         0.826487        -1.724518
 C         2.280152         0.802342        -0.969560
 C         3.053128        -0.348055        -1.736048
 C         2.086127         0.544520         0.549380
 O         2.914524         0.443217         1.339815
 H         3.566725        -1.872185        -4.371026
 H         2.070202        -2.626546        -3.580511
 H         1.997764        -1.386367        -4.910496
 H         3.164389         1.608411        -3.646517
 H         2.229042         1.066354        -5.000074
 H         0.269060         0.254406        -3.520686
 H         2.604783         1.820754        -1.149857
 H         4.213299        -0.200312        -1.735995
 H         2.690210        -1.276051        -1.205621
 H         0.997289         0.498677         0.863799
