19
Iteration:  2188charge 0 multiplicity 1
 C         2.566077        -1.709805        -3.645391
 C         2.373937        -0.428903        -3.044047
 C         2.082392         0.753047        -4.046357
 C         1.109490         0.355727        -2.867007
 O         1.163733         1.079477        -1.640009
 C         2.396041         0.899358        -0.988565
 C         3.298811        -0.044459        -1.903270
 C         2.051546         0.103735         0.168310
 O         2.614442         0.363594         1.296192
 H         3.571981        -1.749146        -4.242475
 H         2.385559        -2.514150        -2.965573
 H         1.798657        -1.938121        -4.482020
 H         2.677672         1.645770        -3.854938
 H         1.968671         0.458441        -5.084510
 H         0.074089        -0.076491        -3.023722
 H         2.959888         1.824376        -0.753646
 H         4.264364         0.429600        -2.042732
 H         3.632095        -0.942293        -1.282449
 H         1.296526        -0.623171        -0.186045
