19
Iteration:  2980
 C         2.706512        -1.665190        -3.875012
 C         2.446242        -0.362359        -3.140024
 C         2.135543         0.904995        -3.924851
 C         1.069755         0.298719        -3.014920
 O         0.985314         0.846606        -1.733765
 C         2.262357         0.758583        -0.979852
 C         3.056130        -0.230203        -1.798265
 C         2.057276         0.450206         0.493090
 O         2.947207         0.348314         1.297517
 H         3.794565        -1.900145        -3.889374
 H         2.111723        -2.478571        -3.611406
 H         2.449363        -1.594424        -4.924890
 H         2.488850         1.885263        -3.586030
 H         2.129401         0.869717        -4.972957
 H         0.150261        -0.160428        -3.349641
 H         2.622114         1.768845        -1.019373
 H         4.153477         0.034062        -1.757958
 H         3.071971        -1.091149        -1.214268
 H         0.929425         0.426976         0.844299
