19
Iteration:   906
 C         2.613865        -1.660476        -4.057236
 C         2.481736        -0.419205        -3.170539
 C         2.201435         0.783156        -3.969354
 C         1.100649         0.412307        -3.009843
 O         1.121780         0.975654        -1.656360
 C         2.353787         0.783217        -1.011259
 C         3.065866        -0.361250        -1.753431
 C         2.051585         0.472129         0.494710
 O         2.735693         0.407089         1.445152
 H         1.704353        -2.401787        -4.139772
 H         3.127245        -1.338045        -5.046412
 H         3.201449        -2.432840        -3.579889
 H         2.666087         1.714124        -3.726263
 H         1.813510         0.703797        -4.970680
 H         0.133457        -0.006458        -3.348486
 H         2.983792         1.726361        -1.070833
 H         4.097113        -0.345959        -1.637506
 H         2.779420        -1.286450        -1.367377
 H         0.976031         0.172368         0.659028
