19
Iteration:  3776charge 0 multiplicity 1
 C         2.461706        -1.677778        -3.932930
 C         2.497306        -0.341331        -3.172302
 C         2.134986         0.992252        -3.930589
 C         1.190897         0.331782        -2.915552
 O         1.070528         0.836885        -1.624772
 C         2.381938         0.640572        -0.997676
 C         3.272601        -0.371012        -1.796058
 C         2.104441         0.225675         0.390906
 O         2.639513         0.696995         1.308504
 H         3.402681        -2.182087        -4.080223
 H         1.784976        -2.476226        -3.478266
 H         2.021383        -1.319578        -4.900145
 H         2.761385         1.804091        -3.601467
 H         1.722287         1.081852        -5.025170
 H         0.302146        -0.053839        -3.342148
 H         2.947155         1.627180        -0.950347
 H         4.314435        -0.083158        -1.770604
 H         3.244649        -1.413545        -1.396461
 H         1.236855        -0.379623         0.521600
