19
Iteration:   688
 C         2.472544        -1.715190        -3.897820
 C         2.469581        -0.394025        -3.153599
 C         2.491013         0.932079        -3.800489
 C         1.180600         0.380083        -3.033269
 O         0.967035         0.801152        -1.689988
 C         2.156238         0.806767        -1.050205
 C         3.083538        -0.279843        -1.700561
 C         1.975422         0.466279         0.402078
 O         2.909099         0.406713         1.216828
 H         1.664454        -2.323282        -3.489813
 H         2.226586        -1.765525        -4.945961
 H         3.424053        -2.209217        -3.657910
 H         3.107301         1.628961        -3.292196
 H         2.408970         1.081486        -4.892071
 H         0.223733         0.098805        -3.608447
 H         2.713642         1.735541        -1.040367
 H         4.164150        -0.120668        -1.642591
 H         2.901091        -1.298228        -1.124994
 H         0.828750         0.233472         0.727562
