19
Iteration:  1919
 C         2.610773        -1.713213        -4.075610
 C         2.455841        -0.488870        -3.146538
 C         2.230769         0.891724        -3.869810
 C         1.141638         0.314758        -2.965875
 O         0.987395         0.962455        -1.721715
 C         2.207659         0.762345        -0.957191
 C         3.126213        -0.267984        -1.750987
 C         2.039193         0.253826         0.444332
 O         2.884159         0.597899         1.365906
 H         3.616453        -1.912156        -4.346209
 H         2.263077        -2.646753        -3.478227
 H         1.995662        -1.660120        -4.959955
 H         2.841694         1.789533        -3.467852
 H         2.064607         0.638596        -4.879548
 H         0.062071         0.146865        -3.256993
 H         2.625800         1.726832        -0.905412
 H         4.109108         0.171159        -1.943759
 H         3.244619        -1.152067        -1.119833
 H         1.113116        -0.350176         0.574635
