19
Iteration:  4136
 C         2.579869        -1.651809        -3.994765
 C         2.401929        -0.426101        -3.157310
 C         2.310732         0.961446        -3.841064
 C         1.168651         0.361464        -3.001047
 O         1.046268         0.829987        -1.669441
 C         2.310071         0.733167        -1.055184
 C         2.931318        -0.420081        -1.697308
 C         2.051178         0.449216         0.462438
 O         2.907130         0.549050         1.279229
 H         3.619202        -1.756923        -4.245322
 H         2.264111        -2.666773        -3.586360
 H         1.902672        -1.522652        -4.901149
 H         2.765631         1.774799        -3.416244
 H         1.985339         0.884028        -4.905168
 H         0.182841         0.011793        -3.298671
 H         2.800203         1.710070        -1.170216
 H         3.989039        -0.300530        -1.624061
 H         2.734063        -1.365184        -1.139690
 H         1.089137        -0.174025         0.603682
