19
Iteration:  4198charge 0 multiplicity 1
 C         2.395430        -1.763989        -4.008361
 C         2.370334        -0.458722        -3.178910
 C         2.337970         0.916112        -3.801193
 C         1.135750         0.477603        -2.981813
 O         1.000980         0.878845        -1.670961
 C         2.296441         0.645882        -1.032162
 C         3.294001        -0.266916        -1.736706
 C         2.074971         0.172485         0.492192
 O         2.772860         0.703068         1.265108
 H         3.472667        -2.162917        -4.148014
 H         1.827703        -2.438504        -3.392600
 H         2.107191        -1.756425        -5.027927
 H         2.962172         1.777344        -3.517544
 H         2.175088         1.033554        -4.984197
 H         0.101378         0.404764        -3.484032
 H         2.875968         1.563544        -0.773083
 H         4.207878         0.241720        -2.082018
 H         3.360878        -1.267894        -1.285046
 H         1.290385        -0.626629         0.815245
