19
Iteration:  1411
 C         2.660981        -1.739859        -3.718331
 C         2.427159        -0.379799        -3.077746
 C         2.169054         0.819573        -3.954356
 C         1.116953         0.335928        -2.982096
 O         0.994255         1.036495        -1.692596
 C         2.293377         0.902448        -1.026401
 C         3.086165        -0.120998        -1.717392
 C         2.072568         0.288115         0.288732
 O         2.881219         0.237284         1.214792
 H         3.745192        -1.824397        -4.150638
 H         2.500454        -2.550936        -3.037021
 H         1.879432        -1.770559        -4.475474
 H         2.527141         1.880800        -3.866424
 H         2.050853         0.730557        -4.974486
 H         0.115883        -0.150414        -3.268523
 H         2.761217         1.941563        -0.948357
 H         4.140562         0.103090        -1.814088
 H         2.992892        -1.103794        -1.265644
 H         0.991497        -0.159542         0.356171
