19
Iteration:  2065charge 0 multiplicity 1
 C         2.559327        -1.792255        -3.672411
 C         2.364406        -0.325872        -3.171014
 C         2.011193         0.855808        -4.019839
 C         1.105208         0.351915        -2.936205
 O         1.126360         1.062242        -1.691551
 C         2.513261         0.845695        -1.109888
 C         3.315129        -0.129256        -1.933939
 C         2.181800         0.156763         0.360203
 O         2.506560         0.385148         1.477802
 H         3.557323        -1.852957        -4.239880
 H         2.638137        -2.405076        -2.750980
 H         1.974078        -2.251360        -4.522286
 H         2.572871         1.812270        -3.924758
 H         1.633191         0.597680        -5.095605
 H         0.146632        -0.027577        -3.194009
 H         2.953415         1.816820        -0.746376
 H         4.345309         0.123096        -2.364470
 H         3.384599        -1.008822        -1.291119
 H         1.679726        -0.764129         0.014784
