19
Iteration:   902charge 0 multiplicity 1
 C         2.596708        -1.680189        -4.070461
 C         2.442105        -0.407206        -3.156596
 C         2.227566         0.831882        -3.949624
 C         1.124370         0.389288        -3.047232
 O         1.118881         0.958721        -1.671843
 C         2.343044         0.756208        -0.987962
 C         3.093689        -0.344126        -1.752033
 C         2.041872         0.465114         0.500569
 O         2.740058         0.429585         1.428692
 H         1.694179        -2.355139        -4.214791
 H         2.946244        -1.440645        -5.140006
 H         3.186221        -2.410835        -3.527889
 H         2.607572         1.808861        -3.623797
 H         1.907248         0.532733        -4.936681
 H         0.144468         0.098719        -3.280222
 H         2.976586         1.686090        -1.066480
 H         4.226099        -0.302601        -1.707905
 H         2.825543        -1.332249        -1.182795
 H         0.939885         0.118819         0.797164
