19
Iteration:  1941charge 0 multiplicity 1
 C         2.648426        -1.696044        -3.806274
 C         2.360621        -0.439511        -3.151370
 C         2.154834         0.917723        -3.938858
 C         1.079027         0.342034        -3.086762
 O         1.082081         1.039416        -1.765878
 C         2.275833         0.705341        -0.981952
 C         3.126995        -0.272421        -1.880658
 C         2.064402         0.163708         0.484703
 O         2.843373         0.584063         1.414157
 H         3.640471        -1.600990        -4.163952
 H         2.531189        -2.685590        -3.203082
 H         2.044432        -1.860415        -4.673274
 H         2.525505         1.844155        -3.334224
 H         2.070308         0.896024        -4.978601
 H         0.081533        -0.166634        -3.295858
 H         2.740817         1.630748        -0.784009
 H         4.166714         0.046192        -1.979019
 H         3.123160        -1.294114        -1.480187
 H         1.371327        -0.681242         0.514755
