19
Iteration:  2092charge 0 multiplicity 1
 C         2.532588        -1.845991        -3.782036
 C         2.430874        -0.406975        -3.098798
 C         2.057441         0.821555        -3.885759
 C         1.122426         0.246018        -2.847191
 O         1.170027         1.099654        -1.645005
 C         2.441586         0.949575        -1.036112
 C         3.294639        -0.021534        -1.904621
 C         2.167026         0.134415         0.153303
 O         2.506485         0.402820         1.358707
 H         3.415631        -2.048807        -4.407945
 H         2.300048        -2.606178        -3.019889
 H         1.791599        -1.920472        -4.583143
 H         2.654070         1.679960        -3.711914
 H         1.818736         0.595871        -4.893896
 H         0.069667        -0.071045        -3.064735
 H         2.885129         1.886613        -0.646512
 H         4.190614         0.345009        -2.317739
 H         3.584280        -0.878622        -1.221088
 H         1.528160        -0.795145        -0.071912
