19
Iteration:   137charge 0 multiplicity 1
 C         2.530634        -1.666627        -4.092962
 C         2.478776        -0.370959        -3.299389
 C         2.275986         0.952229        -3.838373
 C         1.210000         0.272828        -2.944365
 O         1.044200         0.801000        -1.566728
 C         2.393202         0.619498        -0.943871
 C         3.134373        -0.492346        -1.884421
 C         2.005293         0.355214         0.505026
 O         2.664035         0.819552         1.368322
 H         2.415921        -2.487626        -3.470826
 H         1.820555        -1.679079        -5.013905
 H         3.552788        -1.791147        -4.553514
 H         2.827373         1.787383        -3.340245
 H         2.116438         1.259412        -4.885556
 H         0.271321         0.000243        -3.433331
 H         2.982270         1.509700        -0.809581
 H         4.264591        -0.355775        -1.900090
 H         2.742539        -1.485986        -1.435829
 H         0.958851         0.025101         0.666516
