19
Iteration:  1525
 C         2.604923        -1.750325        -3.679072
 C         2.334066        -0.373815        -3.063811
 C         2.011144         0.875002        -3.886670
 C         1.068024         0.391925        -2.914624
 O         1.209481         1.060231        -1.611308
 C         2.453832         0.744832        -1.090699
 C         3.314457        -0.095130        -2.000111
 C         2.302362        -0.032941         0.215219
 O         2.411420         0.524052         1.317431
 H         3.625671        -1.884012        -3.910432
 H         2.385762        -2.668002        -2.977878
 H         1.856050        -1.974740        -4.527827
 H         2.602777         1.782500        -3.710127
 H         1.921551         0.668319        -4.924127
 H         0.065701         0.194784        -3.224130
 H         2.833631         1.722491        -0.839912
 H         4.121925         0.500660        -2.365388
 H         3.436613        -1.051492        -1.409062
 H         1.767794        -1.001575         0.291509
