19
Iteration:  1644
 C         2.699890        -1.720858        -3.816703
 C         2.293505        -0.396106        -3.138898
 C         1.990549         0.753738        -4.015846
 C         1.123520         0.396695        -2.945830
 O         1.151994         1.078062        -1.663747
 C         2.506706         0.824355        -1.047083
 C         3.172365        -0.162770        -2.008865
 C         2.193200         0.148410         0.458187
 O         2.522484         0.438033         1.526140
 H         3.626644        -1.633240        -4.344889
 H         2.964197        -2.566160        -3.061208
 H         1.991962        -2.180397        -4.650686
 H         2.641228         1.755197        -3.982405
 H         1.656440         0.457287        -4.970151
 H        -0.003243         0.260038        -3.156272
 H         3.142262         1.813559        -1.083265
 H         4.074060         0.276721        -2.397855
 H         3.414728        -1.084494        -1.423649
 H         1.558472        -0.727156         0.127727
