19
Iteration:  4326
 C         2.422794        -1.769324        -3.950000
 C         2.434816        -0.485097        -3.214357
 C         2.218953         0.911538        -3.988526
 C         1.179816         0.365754        -2.917683
 O         1.134021         0.981812        -1.627768
 C         2.425172         0.839196        -1.046215
 C         3.129550        -0.284256        -1.811630
 C         2.201791         0.233272         0.378503
 O         2.582829         0.563470         1.457143
 H         3.362653        -2.142669        -4.368920
 H         1.983515        -2.552084        -3.289237
 H         1.668640        -1.590781        -4.726065
 H         2.762127         1.795299        -3.697830
 H         2.117813         0.790275        -5.115038
 H         0.130004         0.011885        -3.247545
 H         2.949846         1.818016        -0.794274
 H         4.208050         0.023432        -1.935657
 H         3.253494        -1.188939        -1.259623
 H         1.562903        -0.670520         0.431138
