19
Iteration:  3657
 C         2.677733        -1.628766        -4.122283
 C         2.410472        -0.390078        -3.264744
 C         2.249654         1.059538        -3.818978
 C         1.145497         0.360612        -2.995770
 O         0.983200         0.635597        -1.639881
 C         2.287550         0.591441        -1.039793
 C         2.986485        -0.488294        -1.806161
 C         2.101360         0.442064         0.542309
 O         2.891709         0.793798         1.416920
 H         3.686582        -1.915909        -4.036192
 H         2.210653        -2.370217        -3.465899
 H         2.185268        -1.711607        -5.120954
 H         2.749623         1.915851        -3.329062
 H         2.067708         1.260465        -4.927794
 H         0.226530        -0.120361        -3.271453
 H         2.687075         1.577920        -1.242897
 H         3.985934        -0.782265        -1.605631
 H         2.446875        -1.397941        -1.498655
 H         1.080659         0.063650         0.796125
