19
Iteration:    88charge 0 multiplicity 1
 C         2.593303        -1.622539        -3.966026
 C         2.491343        -0.389301        -3.137152
 C         2.359685         0.888447        -3.828849
 C         1.206237         0.321947        -2.997185
 O         0.918013         0.724022        -1.696683
 C         2.164324         0.759080        -1.045661
 C         3.022618        -0.298334        -1.740664
 C         2.005199         0.489163         0.468236
 O         2.927333         0.504039         1.276903
 H         2.182012        -2.564676        -3.514745
 H         2.114510        -1.372729        -4.827753
 H         3.572971        -1.935853        -4.222046
 H         3.050015         1.608478        -3.466202
 H         2.240360         1.027825        -4.901642
 H         0.321423        -0.101729        -3.448208
 H         2.733347         1.765363        -1.129741
 H         4.052036        -0.120541        -1.592856
 H         2.662283        -1.184691        -1.313985
 H         1.058356         0.187583         0.763177
