19
Iteration:  4319
 C         2.427017        -1.738060        -3.986895
 C         2.410482        -0.479233        -3.149219
 C         2.201606         0.817860        -3.977378
 C         1.117479         0.387117        -2.938301
 O         1.169586         1.009817        -1.669295
 C         2.435794         0.795002        -1.034517
 C         3.157654        -0.235602        -1.831105
 C         2.172171         0.177408         0.375449
 O         2.609702         0.601561         1.517950
 H         3.425525        -2.097700        -4.454899
 H         2.159141        -2.626735        -3.424809
 H         1.728582        -1.524942        -4.775555
 H         2.834318         1.616373        -3.459385
 H         2.135527         0.831064        -5.101895
 H         0.187615         0.077452        -3.250475
 H         2.844561         1.833779        -0.935900
 H         4.188913         0.066784        -1.997519
 H         3.162001        -1.244617        -1.351672
 H         1.422445        -0.654889         0.348391
