19
Iteration:  4716
 C         2.390825        -1.722807        -3.782674
 C         2.458954        -0.441232        -3.146041
 C         2.260623         0.890188        -3.872951
 C         1.203375         0.425825        -2.988753
 O         1.074643         0.956485        -1.707418
 C         2.379819         0.739464        -1.011426
 C         3.185780        -0.261234        -1.767488
 C         2.080134         0.165377         0.288305
 O         2.688202         0.586147         1.303774
 H         3.343298        -2.154763        -3.905466
 H         1.823282        -2.451132        -3.197404
 H         1.873863        -1.664169        -4.730683
 H         2.762374         1.809351        -3.498296
 H         1.995482         1.022920        -4.957295
 H         0.154119         0.083283        -3.286773
 H         2.900789         1.721487        -0.871879
 H         4.169039         0.169755        -1.874805
 H         3.305245        -1.251726        -1.376906
 H         1.577577        -0.764316         0.191246
