19
Iteration:  3496
 C         2.617510        -1.703054        -3.839801
 C         2.530976        -0.378585        -3.016918
 C         2.041053         0.851688        -4.021840
 C         1.130479         0.243047        -2.910968
 O         1.072654         0.931964        -1.727699
 C         2.246304         0.911680        -1.002841
 C         3.274770        -0.037165        -1.672841
 C         2.000962         0.437904         0.345887
 O         2.819791         0.171006         1.226527
 H         3.465832        -2.296259        -4.184044
 H         2.211154        -2.560911        -3.366994
 H         1.922582        -1.525730        -4.697078
 H         2.174261         1.965018        -4.044683
 H         1.740562         0.447085        -4.918981
 H         0.217166        -0.375117        -3.019845
 H         2.716056         1.945999        -1.012134
 H         4.179528         0.504500        -1.972375
 H         3.585579        -0.909182        -1.129972
 H         1.034786        -0.010545         0.459051
