19
Iteration:   446charge 0 multiplicity 1
 C         2.753753        -1.765157        -3.717509
 C         2.470459        -0.398850        -3.096175
 C         2.406277         0.849785        -3.903900
 C         1.158212         0.475450        -3.126289
 O         0.860850         0.944463        -1.718902
 C         2.069133         0.880995        -0.969775
 C         2.881401        -0.340933        -1.664500
 C         2.030558         0.559049         0.521316
 O         3.021302         0.164301         1.042986
 H         2.445814        -2.587224        -3.089934
 H         2.201088        -1.873263        -4.692068
 H         3.864367        -1.713892        -4.097305
 H         2.878002         1.813082        -3.717981
 H         2.409020         0.795220        -5.040679
 H         0.242655         0.270183        -3.634297
 H         2.679136         1.839605        -1.092901
 H         3.922634        -0.275085        -1.536052
 H         2.506675        -1.192758        -1.167755
 H         1.122546         0.793689         1.019440
