19
Iteration:  1641
 C         2.684200        -1.737907        -3.816547
 C         2.287015        -0.406574        -3.129174
 C         2.006557         0.773232        -3.993492
 C         1.084419         0.414246        -2.904673
 O         1.177412         1.061204        -1.676808
 C         2.503680         0.818730        -1.059096
 C         3.218436        -0.144658        -2.005713
 C         2.172053         0.121896         0.417407
 O         2.518651         0.458109         1.521879
 H         3.623391        -1.509160        -4.321494
 H         2.950154        -2.489374        -3.195532
 H         1.965071        -2.136344        -4.563083
 H         2.622628         1.642274        -3.864121
 H         1.646953         0.372641        -5.022466
 H         0.089489         0.129329        -3.177625
 H         3.082560         1.790874        -1.014578
 H         4.144412         0.271543        -2.449617
 H         3.335241        -1.050318        -1.437401
 H         1.542765        -0.647594         0.095198
