19
Iteration:  1543charge 0 multiplicity 1
 C         2.594524        -1.846811        -3.719587
 C         2.317032        -0.422269        -3.255902
 C         2.091363         0.863068        -4.018350
 C         1.121545         0.451276        -2.850053
 O         1.137841         1.057402        -1.560377
 C         2.513718         0.776963        -0.971922
 C         3.266068        -0.064565        -2.024246
 C         2.240432        -0.011493         0.273952
 O         2.403839         0.536883         1.393241
 H         3.696587        -1.859681        -3.899902
 H         2.374512        -2.617375        -3.008505
 H         2.028565        -2.177897        -4.655074
 H         2.748750         1.626150        -3.804380
 H         1.466812         0.807766        -4.977391
 H         0.099652         0.173075        -2.956507
 H         2.935260         1.815521        -0.665399
 H         4.036790         0.604606        -2.436589
 H         3.653199        -0.952831        -1.554333
 H         2.169060        -1.129748         0.092709
