19
Iteration:  2120charge 0 multiplicity 1
 C         2.471837        -1.697225        -3.699352
 C         2.472320        -0.348455        -3.044686
 C         2.037067         0.733344        -4.028326
 C         1.138566         0.289289        -2.902240
 O         1.187483         1.067477        -1.649819
 C         2.383976         0.760084        -1.002909
 C         3.403569        -0.020843        -1.941718
 C         2.098334         0.100868         0.286903
 O         2.530734         0.440620         1.313199
 H         3.478086        -1.781050        -4.219172
 H         2.056288        -2.523939        -3.136513
 H         1.615759        -1.587841        -4.468935
 H         2.758011         1.658975        -3.920269
 H         1.763176         0.329492        -5.009200
 H         0.195864        -0.197177        -3.058483
 H         2.758456         1.747937        -0.533143
 H         4.234769         0.643708        -2.399414
 H         3.969489        -0.820413        -1.484587
 H         1.233544        -0.656779         0.268871
