19
Iteration:  3595
 C         2.597718        -1.612035        -4.018614
 C         2.488474        -0.467244        -3.067098
 C         2.215513         0.928428        -3.752891
 C         1.185979         0.268582        -2.992936
 O         0.920233         0.774085        -1.732695
 C         2.201409         0.784437        -1.072269
 C         3.133657        -0.289607        -1.696596
 C         1.977173         0.485688         0.455493
 O         2.992968         0.492444         1.226240
 H         3.526452        -1.921522        -4.576390
 H         2.130529        -2.489552        -3.598318
 H         1.921118        -1.416988        -4.892042
 H         2.477928         1.765360        -3.229068
 H         2.356118         0.949219        -4.876531
 H         0.377742        -0.150685        -3.541913
 H         2.628173         1.827971        -1.097992
 H         4.204787        -0.037609        -1.522652
 H         2.718942        -1.094968        -1.063162
 H         1.078268        -0.134456         0.899797
