19
Iteration:  4421
 C         2.454922        -1.646851        -3.920563
 C         2.435229        -0.471143        -3.069533
 C         2.257462         0.830551        -3.945607
 C         1.125095         0.402066        -2.979695
 O         1.092596         0.961838        -1.724039
 C         2.317527         0.829693        -1.044694
 C         3.131406        -0.279075        -1.750317
 C         2.112589         0.269656         0.417566
 O         2.773429         0.519456         1.389322
 H         3.485692        -1.664138        -4.303075
 H         2.241108        -2.659566        -3.430476
 H         1.746503        -1.620711        -4.833182
 H         2.860726         1.604513        -3.677969
 H         2.112386         0.757006        -5.015402
 H         0.235733        -0.155132        -3.417261
 H         2.808263         1.763296        -1.124121
 H         4.184332        -0.446429        -1.817534
 H         2.862783        -1.288713        -1.189998
 H         1.222556        -0.455900         0.347453
