19
Iteration:  3347charge 0 multiplicity 1
 C         2.750592        -1.784646        -3.584667
 C         2.407337        -0.403581        -3.044235
 C         2.034546         0.739331        -4.056866
 C         1.101043         0.383283        -2.963433
 O         1.004144         0.939185        -1.634189
 C         2.329928         1.049535        -1.032638
 C         3.241690         0.181783        -1.903127
 C         2.060806         0.542604         0.391783
 O         2.759341        -0.201575         1.130770
 H         3.786612        -1.934667        -3.796235
 H         2.415548        -2.542418        -2.825456
 H         2.355300        -2.105127        -4.497206
 H         2.643791         1.692771        -4.056001
 H         1.745593         0.336554        -4.975219
 H         0.090378         0.040298        -3.206276
 H         2.525789         2.144570        -1.007492
 H         4.215542         0.660879        -2.139546
 H         3.547254        -0.689965        -1.231189
 H         0.969096         0.820069         0.763383
