19
Iteration:  2800charge 0 multiplicity 1
 C         2.552180        -1.675312        -3.941178
 C         2.430751        -0.367537        -3.308515
 C         2.181503         1.037539        -3.998425
 C         1.156387         0.344966        -2.977094
 O         1.050692         0.756616        -1.576192
 C         2.441352         0.598388        -0.971421
 C         3.150657        -0.447189        -1.991014
 C         2.156246         0.322444         0.512734
 O         2.635648         0.772588         1.515746
 H         3.606126        -1.843818        -4.129670
 H         2.129896        -2.547139        -3.301554
 H         1.964204        -1.777134        -4.882535
 H         2.683170         2.061235        -3.724486
 H         1.812353         1.021493        -5.000451
 H         0.183515         0.117361        -3.376328
 H         3.046176         1.491976        -0.968581
 H         4.153176        -0.217195        -1.878618
 H         2.943262        -1.406406        -1.553125
 H         1.291993        -0.377654         0.552954
