19
Iteration:  1212charge 0 multiplicity 1
 C         2.497114        -1.650196        -3.954397
 C         2.450166        -0.382000        -3.158864
 C         2.346801         1.036867        -3.826250
 C         1.170536         0.350830        -3.031358
 O         0.921728         0.763991        -1.647966
 C         2.206973         0.690264        -1.013768
 C         2.993634        -0.428355        -1.676751
 C         2.192460         0.242787         0.390269
 O         2.889359         0.746864         1.234808
 H         3.584494        -1.782573        -4.323689
 H         2.183595        -2.394748        -3.220499
 H         1.992638        -1.628374        -4.860676
 H         2.848241         1.878273        -3.263023
 H         2.202126         1.056305        -4.886933
 H         0.350813         0.117055        -3.625873
 H         2.844192         1.538996        -1.021072
 H         4.110223        -0.399356        -1.712642
 H         2.831855        -1.515492        -1.177984
 H         1.404481        -0.614960         0.617084
