19
Iteration:  3177charge 0 multiplicity 1
 C         2.551792        -1.704508        -3.664250
 C         2.482661        -0.319300        -3.081806
 C         2.102415         0.715776        -4.007246
 C         1.126998         0.148993        -2.898750
 O         1.042538         0.947521        -1.728803
 C         2.235693         1.115968        -0.981341
 C         3.307401         0.174772        -1.779057
 C         1.997006         0.562653         0.425864
 O         2.851630        -0.182653         1.056328
 H         3.570840        -2.233497        -3.849590
 H         2.141925        -2.445829        -2.983191
 H         2.036477        -1.704695        -4.660664
 H         2.337482         1.834001        -3.967174
 H         1.944783         0.268095        -4.970285
 H         0.299446        -0.544459        -2.993007
 H         2.514365         2.247586        -0.841978
 H         4.195788         0.888808        -2.145770
 H         3.593009        -0.721830        -1.163818
 H         1.039912         0.568401         0.825868
