19
Iteration:  3749charge 0 multiplicity 1
 C         2.537599        -1.671544        -3.975996
 C         2.436314        -0.321866        -3.231491
 C         2.218704         1.025833        -3.921082
 C         1.185401         0.383011        -3.009818
 O         1.045365         0.674133        -1.624133
 C         2.427414         0.660363        -0.996695
 C         3.106323        -0.422239        -1.886868
 C         2.118661         0.283866         0.439899
 O         2.682898         0.769876         1.468739
 H         3.469961        -2.217655        -4.373636
 H         2.203083        -2.411410        -3.218233
 H         1.712606        -1.658198        -4.646577
 H         2.676055         1.966143        -3.465715
 H         2.021675         1.237661        -4.900581
 H         0.224204         0.052752        -3.516071
 H         2.946876         1.614015        -1.054161
 H         4.227124        -0.409655        -2.094997
 H         2.911056        -1.369370        -1.374843
 H         1.216438        -0.408320         0.783014
