19
Iteration:  4436
 C         2.550042        -1.684514        -3.917040
 C         2.429031        -0.399413        -3.139731
 C         2.200570         0.900470        -3.856397
 C         1.146385         0.300543        -2.978865
 O         1.076193         0.998399        -1.705833
 C         2.406522         0.811886        -1.038365
 C         3.066548        -0.445076        -1.728153
 C         2.051546         0.355174         0.306952
 O         2.789690         0.499812         1.347781
 H         3.479871        -1.904801        -4.457717
 H         2.398021        -2.541895        -3.271157
 H         1.724156        -1.614276        -4.573420
 H         2.607654         1.925410        -3.451626
 H         2.036849         0.656320        -4.914778
 H         0.160485         0.151256        -3.274811
 H         3.097358         1.713075        -0.993298
 H         4.148932        -0.106217        -1.659224
 H         2.792093        -1.338677        -1.171402
 H         1.121346        -0.232608         0.376409
