19
Iteration:  4575charge 0 multiplicity 1
 C         2.636849        -1.798573        -3.934256
 C         2.387616        -0.441268        -3.212578
 C         2.379765         0.920444        -3.912979
 C         1.174024         0.454603        -3.105845
 O         0.864808         0.826544        -1.673530
 C         2.222927         0.811025        -0.935429
 C         2.966984        -0.346844        -1.707686
 C         2.069548         0.523692         0.536868
 O         2.991057         0.411906         1.250227
 H         3.714936        -2.037050        -3.994141
 H         2.114149        -2.682706        -3.399169
 H         2.148498        -1.658442        -4.941015
 H         3.159357         1.634132        -3.536884
 H         2.111128         1.263131        -4.894878
 H         0.278513         0.280298        -3.631552
 H         2.793443         1.786836        -1.031629
 H         4.073944        -0.396842        -1.573274
 H         2.470990        -1.220977        -1.197377
 H         1.014897         0.478205         0.895015
