19
Iteration:  4996
 C         2.558520        -1.687931        -4.045103
 C         2.405167        -0.504922        -3.110627
 C         2.319637         0.884614        -3.863383
 C         1.243020         0.419495        -3.047560
 O         1.004698         0.897234        -1.726263
 C         2.252156         0.815903        -1.034781
 C         2.937536        -0.464969        -1.665541
 C         2.071270         0.433459         0.518102
 O         2.942593         0.529629         1.311406
 H         3.543368        -1.577104        -4.563146
 H         2.479116        -2.616510        -3.572304
 H         1.681131        -1.562448        -4.736066
 H         2.677698         1.847965        -3.569095
 H         2.202244         0.792380        -4.905019
 H         0.223334         0.165554        -3.540760
 H         2.668402         1.806095        -0.769369
 H         4.014370        -0.402713        -1.575657
 H         2.579710        -1.404880        -1.161082
 H         0.959909         0.117586         0.679322
