19
Iteration:  3169charge 0 multiplicity 1
 C         2.561838        -1.744165        -3.703337
 C         2.500529        -0.350401        -2.977579
 C         2.047233         0.726159        -3.996852
 C         1.146988         0.149301        -2.861022
 O         1.015922         0.979899        -1.765704
 C         2.246687         1.101148        -1.023752
 C         3.314591         0.200779        -1.776232
 C         2.026566         0.460481         0.427644
 O         2.838807        -0.136862         1.037807
 H         3.637583        -2.097792        -3.691104
 H         1.933989        -2.508047        -3.190719
 H         2.072545        -1.665311        -4.711454
 H         2.362262         1.796398        -3.786872
 H         1.978300         0.532364        -5.021922
 H         0.325471        -0.495514        -3.076242
 H         2.601332         2.169471        -0.965960
 H         4.275357         0.843860        -2.062673
 H         3.643313        -0.692202        -1.103623
 H         0.987676         0.832488         0.841586
