19
Iteration:   224
 C         2.379445        -1.679834        -4.009605
 C         2.395070        -0.380381        -3.235466
 C         2.294551         1.078101        -3.795823
 C         1.194219         0.448296        -2.917598
 O         1.191251         0.647440        -1.490457
 C         2.573949         0.550577        -1.010727
 C         3.215681        -0.502739        -1.955719
 C         2.270123         0.169901         0.402372
 O         2.231267         1.031419         1.331244
 H         1.978478        -2.567323        -3.486640
 H         1.828048        -1.576090        -5.042526
 H         3.477723        -1.907422        -4.205911
 H         2.923309         1.892201        -3.485306
 H         2.091547         1.054185        -4.887933
 H         0.197281         0.121372        -3.145647
 H         3.096758         1.541684        -1.026028
 H         4.297324        -0.380036        -2.238358
 H         3.094948        -1.507499        -1.556203
 H         1.989963        -0.982201         0.564574
