19
Iteration:  4456
 C         2.603307        -1.787356        -3.923044
 C         2.400987        -0.376615        -3.132105
 C         2.139944         0.970758        -3.841464
 C         1.152981         0.365816        -2.982099
 O         1.138863         0.996380        -1.651675
 C         2.361682         0.716728        -1.076147
 C         3.080053        -0.451661        -1.789578
 C         1.957963         0.435223         0.386303
 O         2.822756         0.496332         1.295491
 H         3.576213        -1.693251        -4.400865
 H         2.643688        -2.676977        -3.218969
 H         1.901325        -1.977345        -4.767079
 H         2.818512         1.682280        -3.405435
 H         2.069771         1.084968        -4.901962
 H         0.246809        -0.077507        -3.218582
 H         2.896429         1.650762        -1.017094
 H         4.208501        -0.398637        -1.723587
 H         2.597144        -1.434104        -1.449469
 H         0.920544         0.231659         0.760258
