19
Iteration:  2054charge 0 multiplicity 1
 C         2.590461        -1.720821        -3.678995
 C         2.412834        -0.360058        -3.164286
 C         2.016957         0.859621        -4.107461
 C         1.070999         0.404482        -2.939901
 O         1.169682         1.017813        -1.643712
 C         2.446536         0.826159        -0.979395
 C         3.307983        -0.144019        -1.970085
 C         2.149432         0.060018         0.320440
 O         2.533342         0.464604         1.455154
 H         3.659772        -1.874759        -4.045089
 H         2.525363        -2.501034        -2.875970
 H         1.700003        -2.019846        -4.289134
 H         2.591592         1.769817        -4.300339
 H         1.680696         0.332908        -5.097527
 H         0.079732         0.064071        -3.170418
 H         3.032062         1.789505        -0.885825
 H         4.363672         0.265256        -2.180693
 H         3.423299        -1.148380        -1.551277
 H         1.373118        -0.747732         0.317713
