19
Iteration:  1982charge 0 multiplicity 1
 C         2.541780        -1.761720        -3.806992
 C         2.500185        -0.406720        -3.132443
 C         2.091397         0.841455        -3.996353
 C         1.139353         0.386405        -2.855683
 O         1.073900         0.880552        -1.602886
 C         2.387787         0.947238        -1.031873
 C         3.258060        -0.146267        -1.873670
 C         2.159530         0.245143         0.277041
 O         2.592345         0.431655         1.367218
 H         3.556891        -1.935508        -4.262616
 H         2.069665        -2.536883        -3.212726
 H         1.867350        -1.826811        -4.737465
 H         2.665978         1.825207        -3.923747
 H         1.846981         0.687169        -5.019653
 H         0.202010        -0.008290        -3.229981
 H         2.876224         1.969635        -0.950657
 H         4.308626        -0.002275        -2.085073
 H         3.221741        -1.117748        -1.287414
 H         1.409924        -0.569606         0.190414
