19
Iteration:  2192
 C         2.565066        -1.734469        -3.701755
 C         2.385594        -0.413924        -3.006471
 C         2.074785         0.769955        -4.025036
 C         1.136263         0.326094        -2.842682
 O         1.119978         1.098018        -1.665114
 C         2.414717         0.918590        -1.005890
 C         3.308816        -0.046642        -1.876808
 C         2.056320         0.091817         0.188480
 O         2.612488         0.361721         1.251799
 H         3.547472        -1.786336        -4.136454
 H         2.331311        -2.579943        -2.977484
 H         1.758621        -1.824240        -4.378134
 H         2.742361         1.566949        -3.838310
 H         1.961478         0.401340        -5.047534
 H         0.110959         0.027331        -2.993109
 H         3.009699         1.767789        -0.728485
 H         4.231724         0.488426        -2.056073
 H         3.641982        -0.891607        -1.240585
 H         1.265556        -0.713580        -0.088040
