19
Iteration:  2434
 C         2.601879        -1.651343        -3.978411
 C         2.476155        -0.463875        -3.074566
 C         2.163946         0.956977        -3.791388
 C         1.094640         0.145103        -2.977643
 O         0.995232         0.751234        -1.710301
 C         2.323336         0.849497        -1.091770
 C         3.154449        -0.312347        -1.616873
 C         2.100884         0.934206         0.430432
 O         2.786665         0.132911         1.148756
 H         3.573030        -1.980882        -4.268715
 H         2.166525        -2.617853        -3.466614
 H         2.105420        -1.219788        -4.900950
 H         2.394723         1.861648        -3.275666
 H         2.464675         1.071982        -4.912338
 H         0.233738        -0.515243        -3.329866
 H         2.797688         1.827573        -1.363804
 H         4.221003         0.098357        -1.602843
 H         2.899013        -1.091639        -0.887624
 H         1.273789         1.642917         0.852083
