19
Iteration:   882charge 0 multiplicity 1
 C         2.473960        -1.686693        -3.964100
 C         2.486336        -0.462505        -3.135095
 C         2.287405         0.985524        -3.881978
 C         1.184923         0.359979        -2.992497
 O         1.067242         0.912070        -1.731929
 C         2.298229         0.700340        -0.991913
 C         3.119562        -0.397867        -1.787981
 C         1.980771         0.382152         0.486926
 O         2.783599         0.526660         1.337867
 H         1.516746        -2.379572        -3.928585
 H         2.811033        -1.244434        -5.004321
 H         3.125285        -2.445992        -3.677438
 H         2.922862         1.687596        -3.332041
 H         2.172756         1.101982        -4.898011
 H         0.356565        -0.042907        -3.458360
 H         2.851461         1.705220        -0.965117
 H         4.082519         0.005131        -1.872502
 H         3.292804        -1.376747        -1.409024
 H         0.905367         0.142683         0.713600
