19
Iteration:  1756charge 0 multiplicity 1
 C         2.679084        -1.673639        -3.826890
 C         2.403395        -0.374248        -3.131735
 C         2.306150         0.947978        -4.007642
 C         1.095482         0.381105        -3.082076
 O         0.921896         0.761401        -1.677156
 C         2.233252         0.775126        -0.963691
 C         3.057832        -0.272893        -1.810760
 C         2.066573         0.416734         0.510331
 O         2.935665         0.422458         1.313240
 H         3.753578        -1.817498        -4.105622
 H         2.488409        -2.554759        -3.060908
 H         1.997097        -1.741982        -4.625611
 H         2.779249         1.824008        -3.760973
 H         1.991751         0.795031        -5.110250
 H         0.161999         0.130152        -3.483167
 H         2.626063         1.859908        -0.939698
 H         4.091617        -0.145204        -2.093070
 H         2.903476        -1.313078        -1.473399
 H         1.011406         0.358006         0.888421
