19
Iteration:   454
 C         2.776797        -1.720880        -3.722410
 C         2.434184        -0.420139        -3.052328
 C         2.397124         0.866473        -3.901877
 C         1.178288         0.458604        -3.072391
 O         0.843113         0.938081        -1.809862
 C         2.130138         0.882467        -1.006152
 C         2.849679        -0.334842        -1.642878
 C         2.025357         0.633340         0.503986
 O         3.045108         0.116135         1.053248
 H         2.573586        -2.729267        -3.200419
 H         2.105368        -1.724052        -4.681486
 H         3.826832        -1.755238        -3.957407
 H         2.871390         1.723230        -3.457791
 H         2.149225         0.763964        -4.970786
 H         0.233274         0.270856        -3.699483
 H         2.580964         1.906260        -1.076598
 H         3.980101        -0.356744        -1.478479
 H         2.501638        -1.302401        -1.094981
 H         1.093775         0.691393         1.100746
