19
Iteration:  3894
 C         2.396628        -1.766509        -3.854792
 C         2.459487        -0.442978        -3.114999
 C         2.225641         0.811361        -3.955588
 C         1.200315         0.320293        -2.971619
 O         1.083019         0.967689        -1.692891
 C         2.345244         0.906477        -0.968111
 C         3.264787        -0.074704        -1.879872
 C         2.017670         0.273977         0.435328
 O         2.716418         0.365123         1.379638
 H         3.295291        -1.732101        -4.553157
 H         2.582652        -2.751533        -3.359943
 H         1.605104        -1.815815        -4.620704
 H         2.777307         1.704637        -3.726145
 H         1.840207         0.780097        -5.051654
 H         0.319091        -0.125904        -3.343216
 H         2.770755         1.923688        -0.829354
 H         4.194629         0.364778        -2.258673
 H         3.476751        -1.021304        -1.294004
 H         1.055143        -0.243822         0.434898
