19
Iteration:  3376
 C         2.652712        -1.695922        -3.617835
 C         2.519925        -0.333263        -3.000228
 C         2.045006         0.770719        -3.942685
 C         1.205949         0.157565        -2.927597
 O         1.004157         1.068906        -1.799008
 C         2.191829         0.936229        -0.971140
 C         3.215916         0.084486        -1.797453
 C         2.024096         0.539110         0.431387
 O         2.841018        -0.122732         0.942680
 H         3.622081        -2.173993        -4.025661
 H         2.522968        -2.445951        -2.805751
 H         1.722171        -1.936068        -4.239166
 H         2.312214         1.761158        -3.643607
 H         2.026516         0.577458        -5.012288
 H         0.298658        -0.476637        -2.965030
 H         2.549218         1.967397        -0.895919
 H         4.133099         0.705584        -1.918832
 H         3.528523        -0.710083        -1.123847
 H         1.122983         0.815178         0.879969
