19
Iteration:  2105charge 0 multiplicity 1
 C         2.450922        -1.736815        -3.785995
 C         2.434218        -0.459263        -3.035419
 C         2.078744         0.729965        -3.934142
 C         1.150982         0.352802        -2.802683
 O         1.100807         1.074360        -1.660790
 C         2.476442         0.873177        -1.017220
 C         3.442757         0.000524        -1.896403
 C         2.069239         0.084615         0.221833
 O         2.527878         0.435681         1.271187
 H         3.428433        -1.887397        -4.106878
 H         2.384768        -2.660053        -3.122346
 H         1.762609        -1.766643        -4.570274
 H         2.428693         1.691484        -3.834545
 H         1.734297         0.579704        -5.029891
 H         0.214330        -0.169721        -3.063102
 H         2.886843         1.855219        -0.905083
 H         4.307707         0.616519        -2.141792
 H         3.722737        -0.909611        -1.349204
 H         1.450751        -0.900417         0.022615
