19
Iteration:   537charge 0 multiplicity 1
 C         2.474808        -1.664430        -3.978900
 C         2.526256        -0.365386        -3.252399
 C         2.243689         0.926778        -3.880504
 C         1.193977         0.255111        -3.008796
 O         1.059865         0.730608        -1.667218
 C         2.405574         0.723065        -1.026148
 C         3.216990        -0.342412        -1.861202
 C         2.026022         0.787758         0.511887
 O         2.584259         0.307422         1.479029
 H         2.051576        -2.450087        -3.343833
 H         1.973303        -1.617421        -4.916091
 H         3.552057        -2.034445        -4.407417
 H         2.962390         1.659978        -3.539692
 H         2.108730         0.998244        -4.926589
 H         0.256957        -0.221595        -3.458670
 H         2.819011         1.788953        -1.015650
 H         4.250515        -0.016959        -1.926602
 H         3.123140        -1.307915        -1.482973
 H         1.168958         1.476885         0.651621
