19
Iteration:  2178
 C         2.559442        -1.764804        -3.611769
 C         2.373438        -0.338560        -3.137709
 C         2.086172         0.737477        -4.033797
 C         1.076498         0.404458        -2.940270
 O         1.208518         1.062054        -1.649328
 C         2.436337         0.860142        -1.013478
 C         3.276665        -0.038165        -1.922420
 C         2.120387         0.168405         0.284796
 O         2.556853         0.320555         1.341875
 H         3.619947        -1.777951        -4.102851
 H         2.703330        -2.501663        -2.835743
 H         1.875634        -2.070658        -4.437671
 H         2.465307         1.676667        -3.951513
 H         1.747764         0.591105        -5.049705
 H         0.132417        -0.166055        -3.125499
 H         2.748879         1.882841        -0.805127
 H         4.168434         0.369670        -2.304606
 H         3.432671        -1.067441        -1.477880
 H         1.334868        -0.656586         0.171043
