19
Iteration:   552
 C         2.475707        -1.749716        -4.049874
 C         2.513876        -0.447918        -3.155353
 C         2.207062         1.027961        -3.916143
 C         1.295080         0.326866        -2.947784
 O         1.121658         0.764324        -1.658354
 C         2.335390         0.678931        -1.040392
 C         3.280436        -0.358959        -1.856497
 C         1.972997         0.761825         0.435804
 O         2.567733         0.331399         1.487227
 H         2.162536        -2.606231        -3.390539
 H         1.729123        -1.500599        -4.886913
 H         3.369047        -2.087713        -4.342227
 H         2.350496         2.019321        -3.521247
 H         1.874907         0.899680        -4.980345
 H         0.313951         0.009710        -3.298686
 H         2.921974         1.564290        -1.307029
 H         4.340559         0.097737        -1.929073
 H         3.478229        -1.331977        -1.211415
 H         1.087912         1.266729         0.638031
