19
Iteration:  1441charge 0 multiplicity 1
 C         2.650345        -1.771173        -3.816095
 C         2.387256        -0.402270        -3.190859
 C         2.053790         0.797951        -3.926412
 C         1.095589         0.338251        -2.933604
 O         1.181799         1.072954        -1.730255
 C         2.361411         0.689464        -0.989185
 C         3.266294        -0.075446        -1.935078
 C         1.936249         0.301646         0.454104
 O         2.733479         0.355131         1.383411
 H         3.565986        -1.849889        -4.492912
 H         2.694393        -2.503406        -3.016038
 H         1.863216        -2.015832        -4.447087
 H         2.685429         1.808714        -3.700620
 H         1.594931         0.703971        -4.939967
 H         0.053135         0.044644        -3.223435
 H         2.790486         1.678215        -0.717404
 H         4.275083         0.382649        -2.105051
 H         3.585788        -1.051488        -1.585398
 H         0.862422         0.154215         0.486560
