19
Iteration:  4733charge 0 multiplicity 1
 C         2.394231        -1.759944        -3.771266
 C         2.416925        -0.352680        -3.138489
 C         2.280706         0.951844        -3.904276
 C         1.125229         0.314891        -3.009607
 O         1.100294         0.947024        -1.678459
 C         2.395591         0.891359        -1.095484
 C         3.175743        -0.277230        -1.866786
 C         2.224155         0.190727         0.325544
 O         2.617703         0.511607         1.418098
 H         3.434730        -2.246756        -3.997157
 H         1.870217        -2.471242        -3.070059
 H         1.968179        -1.871733        -4.819778
 H         2.825000         1.818876        -3.545915
 H         2.337846         0.818469        -4.924126
 H         0.192862         0.004540        -3.347605
 H         2.869190         1.844500        -1.047400
 H         4.287193        -0.196925        -1.951304
 H         2.839047        -1.175518        -1.276206
 H         1.360294        -0.617083         0.333917
