19
Iteration:   253charge 0 multiplicity 1
 C         2.207151        -1.647814        -4.131158
 C         2.506431        -0.411274        -3.257667
 C         2.238761         1.031103        -3.854255
 C         1.301964         0.320823        -2.883443
 O         1.194695         0.737211        -1.538368
 C         2.559317         0.495997        -0.919985
 C         3.415097        -0.434289        -1.950639
 C         2.195414         0.150878         0.561715
 O         2.186285         1.045687         1.326544
 H         1.796501        -2.549900        -3.522635
 H         1.709954        -1.329985        -5.007012
 H         3.121599        -2.024691        -4.493962
 H         2.925136         1.909771        -3.858980
 H         1.798014         1.038910        -4.873721
 H         0.280641         0.005799        -3.137404
 H         3.025380         1.503357        -0.813380
 H         4.421800        -0.088465        -2.198604
 H         3.392971        -1.440405        -1.569593
 H         1.958054        -0.859982         0.762099
