19
Iteration:  2077charge 0 multiplicity 1
 C         2.574066        -1.820944        -3.709627
 C         2.405452        -0.455439        -3.173234
 C         2.020780         0.842957        -3.968353
 C         1.107517         0.336040        -2.883033
 O         1.176926         1.084890        -1.706439
 C         2.471781         0.937255        -1.043181
 C         3.236411        -0.086738        -1.955283
 C         2.224970         0.169399         0.266250
 O         2.485283         0.356584         1.454004
 H         3.656874        -1.871335        -4.132737
 H         2.517901        -2.587148        -2.934232
 H         1.652813        -2.066797        -4.356182
 H         2.476116         1.788399        -3.503648
 H         1.765343         0.942019        -5.030789
 H         0.167298        -0.142795        -3.033182
 H         2.938069         1.975101        -1.208327
 H         4.256366         0.402802        -2.072001
 H         3.428905        -1.074171        -1.501390
 H         1.672056        -0.752383         0.073676
