19
Iteration:  3561
 C         2.728255        -1.703543        -3.788474
 C         2.441445        -0.344297        -3.162415
 C         2.232945         0.924206        -3.960812
 C         1.108775         0.421022        -2.988090
 O         0.920188         0.803841        -1.667047
 C         2.187386         0.774038        -1.035309
 C         3.058202        -0.250631        -1.807317
 C         2.008201         0.425210         0.473243
 O         2.991887         0.368323         1.228636
 H         3.749788        -1.731342        -4.241292
 H         2.693647        -2.438053        -3.007054
 H         1.835103        -1.822995        -4.462731
 H         2.781515         1.893507        -3.719884
 H         1.996757         0.764954        -5.027704
 H         0.189878        -0.014670        -3.430463
 H         2.590280         1.828885        -1.013822
 H         4.155703        -0.213093        -1.652835
 H         2.911904        -1.184790        -1.208611
 H         0.947012        -0.048437         0.666773
