19
Iteration:    93charge 0 multiplicity 1
 C         2.580536        -1.609261        -3.965821
 C         2.468515        -0.406012        -3.121439
 C         2.380460         0.899262        -3.835373
 C         1.181266         0.330954        -3.038687
 O         0.892334         0.698962        -1.670041
 C         2.248504         0.775860        -1.031639
 C         3.057004        -0.319605        -1.732877
 C         2.014574         0.483914         0.421950
 O         2.904702         0.527787         1.300293
 H         2.125989        -2.471612        -3.471039
 H         2.000645        -1.419068        -4.977906
 H         3.638473        -1.879951        -4.275192
 H         2.994735         1.690679        -3.324961
 H         2.253894         1.037933        -4.911000
 H         0.268864        -0.130673        -3.445628
 H         2.628398         1.768567        -1.188895
 H         4.189650        -0.205463        -1.651381
 H         2.709937        -1.321104        -1.268386
 H         0.893160         0.181316         0.740498
