19
Iteration:  1340
 C         2.553418        -1.773157        -3.818701
 C         2.383826        -0.393154        -3.126762
 C         2.329166         0.994487        -3.841931
 C         1.173799         0.432691        -3.069828
 O         0.906384         0.780047        -1.662607
 C         2.190663         0.688377        -0.992406
 C         3.152847        -0.305690        -1.842476
 C         2.018186         0.487056         0.502890
 O         2.968077         0.417014         1.199142
 H         3.549844        -2.005747        -3.684871
 H         1.960713        -2.592114        -3.341635
 H         2.254873        -1.692950        -4.870983
 H         2.916706         1.820467        -3.521889
 H         2.163007         1.192528        -4.944590
 H         0.291576         0.173156        -3.637609
 H         2.718491         1.648281        -1.006845
 H         4.044343         0.292319        -1.951571
 H         3.288416        -1.253717        -1.394083
 H         0.823406         0.431589         0.701339
