19
Iteration:  1560
 C         2.500691        -1.813111        -3.778211
 C         2.402143        -0.407255        -3.215671
 C         1.991856         0.830376        -4.083168
 C         1.151157         0.399117        -2.885143
 O         1.199624         0.973839        -1.584758
 C         2.463295         0.836546        -1.005159
 C         3.360125         0.020795        -2.063711
 C         2.271936         0.040659         0.370207
 O         2.364676         0.500227         1.539429
 H         3.520539        -2.064086        -4.130788
 H         2.165564        -2.484795        -2.937743
 H         1.914887        -1.915080        -4.655636
 H         2.770787         1.712996        -4.056709
 H         1.540243         0.701852        -5.054649
 H         0.115751         0.112513        -3.274989
 H         2.945473         1.753784        -0.803716
 H         4.386318         0.371326        -2.316433
 H         3.728456        -0.962194        -1.634668
 H         1.803563        -0.946432         0.195493
