19
Iteration:  3530
 C         2.780449        -1.780402        -3.760653
 C         2.346369        -0.435856        -3.135049
 C         2.212529         0.935003        -3.908701
 C         1.071987         0.325355        -2.957519
 O         0.984704         0.969073        -1.689107
 C         2.217266         0.785627        -1.023297
 C         3.117570        -0.158137        -1.883574
 C         2.028882         0.421400         0.452635
 O         2.903451         0.269856         1.233123
 H         3.796116        -1.629331        -4.182021
 H         2.551407        -2.481485        -2.985660
 H         2.105627        -1.977339        -4.587799
 H         2.670088         1.820910        -3.605040
 H         1.967546         0.968008        -4.973461
 H         0.066127        -0.059409        -3.118407
 H         2.547202         1.849255        -1.035938
 H         4.029091         0.350595        -2.203571
 H         3.361486        -1.059121        -1.308635
 H         1.019299         0.015442         0.550091
