19
Iteration:   477
 C         2.765550        -1.684911        -3.830484
 C         2.461470        -0.439511        -3.024270
 C         2.353032         0.877025        -3.752962
 C         1.093725         0.323784        -3.082897
 O         0.909739         0.986584        -1.732984
 C         2.136283         0.896256        -1.078598
 C         2.895173        -0.400822        -1.625047
 C         2.058116         0.687677         0.386406
 O         2.954730         0.111995         1.067292
 H         2.498247        -2.648659        -3.320165
 H         2.212056        -1.679580        -4.852257
 H         3.858694        -1.689432        -3.970273
 H         2.626302         1.806426        -3.248694
 H         2.592220         0.752009        -4.848258
 H         0.187075         0.009482        -3.608530
 H         2.789875         1.817956        -1.234934
 H         3.985903        -0.263117        -1.526544
 H         2.681397        -1.264754        -0.930669
 H         1.197658         1.200900         0.936466
