19
Iteration:  2451charge 0 multiplicity 1
 C         2.676208        -1.653464        -3.959235
 C         2.514045        -0.399601        -3.113471
 C         2.143904         0.902413        -3.812604
 C         1.148944         0.206713        -2.956616
 O         0.980480         0.792861        -1.660781
 C         2.240336         0.843379        -1.045936
 C         3.067519        -0.353322        -1.710045
 C         2.157020         0.875617         0.387246
 O         2.770480         0.167045         1.216671
 H         3.789502        -1.884641        -4.150645
 H         2.474082        -2.552311        -3.431711
 H         2.086125        -1.687742        -4.856593
 H         2.564847         1.824775        -3.386273
 H         1.826425         0.805176        -4.804483
 H         0.287221        -0.124740        -3.513214
 H         2.744299         1.760331        -1.407927
 H         4.118928        -0.184700        -1.759804
 H         2.746909        -1.349104        -1.254822
 H         1.592839         1.702164         0.861056
