19
Iteration:   945
 C         2.672443        -1.700977        -3.830029
 C         2.413124        -0.387921        -3.161374
 C         2.103745         0.861209        -3.880258
 C         1.064716         0.386455        -3.006411
 O         1.159327         1.014154        -1.736976
 C         2.373164         0.767401        -1.030297
 C         3.090309        -0.385742        -1.748924
 C         1.976286         0.441371         0.401827
 O         2.797320         0.335292         1.273310
 H         1.958551        -1.906519        -4.550655
 H         3.413702        -1.562043        -4.602870
 H         3.033677        -2.420025        -3.042837
 H         2.478593         1.774271        -3.321136
 H         2.009328         0.934685        -4.962923
 H         0.090673         0.051875        -3.125524
 H         3.004916         1.653700        -1.036228
 H         4.199613        -0.126763        -1.615965
 H         2.885219        -1.378006        -1.138670
 H         0.920842         0.347092         0.536730
