19
Iteration:   241
 C         2.329689        -1.593867        -4.072590
 C         2.494908        -0.360649        -3.297333
 C         2.251855         0.941975        -3.894807
 C         1.228183         0.395917        -2.861437
 O         1.255114         0.668322        -1.481397
 C         2.547370         0.462629        -0.989029
 C         3.281973        -0.418912        -1.964205
 C         2.236860         0.130227         0.497273
 O         2.189095         1.071125         1.339863
 H         1.611527        -2.221296        -3.428180
 H         1.629127        -1.465598        -4.818133
 H         3.153360        -2.130292        -4.428689
 H         2.876277         1.707185        -3.357925
 H         1.871769         0.986394        -4.916142
 H         0.257020         0.281412        -3.386531
 H         3.094609         1.412184        -0.924387
 H         4.301862        -0.044867        -1.947587
 H         3.427317        -1.483577        -1.658412
 H         1.838601        -0.805831         0.785115
