19
Iteration:  3013charge 0 multiplicity 1
 C         2.718501        -1.776530        -3.769146
 C         2.464718        -0.326293        -3.208437
 C         2.056949         0.936849        -3.985300
 C         1.070634         0.407973        -2.994755
 O         0.982388         0.826398        -1.709438
 C         2.324239         0.792368        -0.969937
 C         3.210994        -0.188189        -1.799812
 C         2.009594         0.467329         0.485197
 O         2.868900         0.243315         1.251662
 H         3.716684        -1.967526        -4.223980
 H         2.710193        -2.471420        -2.979973
 H         1.961406        -1.842901        -4.527577
 H         2.343789         1.898054        -3.613795
 H         1.905520         0.792439        -5.054620
 H         0.094973         0.003638        -3.285684
 H         2.719440         1.805452        -0.951302
 H         4.241240         0.268070        -1.902202
 H         3.106813        -1.124483        -1.309468
 H         0.938975         0.494544         0.736835
