19
Iteration:  1586
 C         2.369807        -1.643364        -3.792567
 C         2.530591        -0.335305        -3.174834
 C         1.970259         0.802755        -4.031207
 C         1.161219         0.181064        -2.855376
 O         1.227482         0.963790        -1.656963
 C         2.486820         0.813837        -0.985120
 C         3.453192        -0.057134        -1.928447
 C         2.151804         0.114252         0.331385
 O         2.405351         0.506816         1.419321
 H         3.260700        -2.016687        -4.338592
 H         2.092794        -2.272652        -3.023261
 H         1.517310        -1.609081        -4.496223
 H         2.285987         1.754935        -3.691256
 H         1.794081         0.694538        -5.187909
 H         0.245792        -0.300852        -3.116796
 H         2.981528         1.805985        -0.762907
 H         4.397006         0.482221        -2.213499
 H         3.850038        -0.989580        -1.499494
 H         1.587148        -0.844344         0.035345
