19
Iteration:   412
 C         2.505519        -1.737573        -3.751267
 C         2.454543        -0.452623        -3.100044
 C         2.337280         0.952587        -3.798831
 C         1.220821         0.413112        -3.129389
 O         0.967343         0.860329        -1.754421
 C         2.199364         0.840302        -1.072003
 C         3.152467        -0.295904        -1.768503
 C         1.950212         0.466779         0.465060
 O         2.895133         0.325933         1.247134
 H         2.257448        -2.592134        -3.169185
 H         2.026815        -1.548032        -4.776598
 H         3.585386        -2.079221        -4.007117
 H         2.821238         1.814734        -3.379649
 H         2.172804         0.915859        -4.888554
 H         0.198590         0.136891        -3.514061
 H         2.825342         1.787397        -1.156372
 H         4.188133        -0.080707        -1.879812
 H         3.060879        -1.253158        -1.365723
 H         0.846926         0.415486         0.771949
