19
Iteration:   894
 C         2.561522        -1.711710        -4.050475
 C         2.391923        -0.431181        -3.144083
 C         2.244473         0.924039        -3.919631
 C         1.172270         0.352597        -3.031611
 O         1.099107         0.932641        -1.714506
 C         2.337590         0.734126        -0.973319
 C         3.130007        -0.371019        -1.740006
 C         1.959829         0.427355         0.483770
 O         2.800356         0.473639         1.432405
 H         1.490841        -2.148760        -4.195703
 H         2.866301        -1.540439        -5.162306
 H         3.291926        -2.331458        -3.631922
 H         2.647687         1.897974        -3.710989
 H         2.224249         0.669377        -4.928319
 H         0.172749         0.151266        -3.316331
 H         2.937544         1.697139        -0.944071
 H         4.138995        -0.142678        -1.849971
 H         3.014393        -1.260020        -1.191218
 H         0.880985         0.159935         0.617315
