19
Iteration:  2847
 C         2.598031        -1.557553        -4.181681
 C         2.443374        -0.477443        -3.101256
 C         2.295384         0.846814        -3.643000
 C         1.079549         0.287576        -2.961930
 O         0.979286         0.869984        -1.662788
 C         2.247860         0.739526        -1.060431
 C         3.068452        -0.469909        -1.743624
 C         2.108130         0.309254         0.428087
 O         2.833431         0.764177         1.311950
 H         3.588462        -1.428846        -4.809906
 H         2.505367        -2.598346        -3.827841
 H         1.727907        -1.409896        -4.847165
 H         2.735892         1.659296        -3.125356
 H         2.459331         0.950353        -4.773850
 H         0.218372        -0.287644        -3.405461
 H         2.858119         1.665855        -1.251781
 H         4.197524        -0.241800        -1.802686
 H         2.844267        -1.380162        -1.205069
 H         1.392984        -0.463028         0.497797
