19
Iteration:  3465
 C         2.691202        -1.723776        -3.686282
 C         2.504460        -0.296329        -3.156947
 C         2.039024         0.830496        -4.026648
 C         1.089084         0.208906        -2.872529
 O         1.041370         0.990821        -1.720971
 C         2.285479         0.821002        -1.053128
 C         3.280774         0.045252        -1.911901
 C         2.025426         0.419418         0.369091
 O         2.774769         0.097285         1.338428
 H         3.694186        -2.193249        -4.059992
 H         2.155637        -2.269368        -2.827427
 H         1.987146        -1.896455        -4.529904
 H         2.339061         1.864121        -3.853183
 H         1.788995         0.616655        -5.024473
 H         0.179156        -0.319862        -3.132835
 H         2.768197         1.803269        -0.793689
 H         4.300306         0.421551        -2.150493
 H         3.519145        -0.885963        -1.343063
 H         0.852317         0.524939         0.554858
