19
Iteration:  4287charge 0 multiplicity 1
 C         2.546342        -1.723914        -4.013098
 C         2.365909        -0.445498        -3.085015
 C         2.107867         0.838377        -3.962073
 C         1.147369         0.403455        -2.896766
 O         1.233883         1.080723        -1.635622
 C         2.411034         0.638688        -0.964182
 C         3.181732        -0.361949        -1.843678
 C         2.033314         0.182436         0.409341
 O         2.637745         0.664135         1.361058
 H         3.438067        -1.695101        -4.681135
 H         2.421492        -2.654391        -3.475384
 H         1.708731        -1.796573        -4.703398
 H         2.743800         1.698022        -3.625594
 H         1.999534         0.843807        -5.033564
 H         0.172774         0.166303        -3.060690
 H         3.027262         1.516460        -0.977755
 H         4.135592         0.124189        -2.114359
 H         3.391156        -1.338884        -1.337516
 H         1.117311        -0.407469         0.339292
