19
Iteration:  3559charge 0 multiplicity 1
 C         2.744827        -1.725142        -3.775532
 C         2.440628        -0.344881        -3.162250
 C         2.225051         0.916450        -3.955014
 C         1.077267         0.449377        -3.001919
 O         0.925015         0.805992        -1.681735
 C         2.195798         0.778538        -1.017030
 C         3.084816        -0.244751        -1.807151
 C         1.997044         0.410197         0.457141
 O         2.997103         0.366394         1.235007
 H         3.729060        -1.687595        -4.253113
 H         2.691538        -2.487939        -2.976507
 H         1.856936        -1.858358        -4.483478
 H         2.848928         1.927062        -3.731172
 H         1.932752         0.828326        -4.988732
 H         0.111951        -0.016832        -3.365310
 H         2.523078         1.836945        -0.988979
 H         4.194875        -0.227140        -1.694742
 H         2.871147        -1.222961        -1.267400
 H         0.929271         0.013024         0.695419
