19
Iteration:  3713
 C         2.621631        -1.592033        -4.172003
 C         2.386495        -0.515922        -3.126830
 C         2.393968         0.882470        -3.734558
 C         1.115513         0.370572        -2.971354
 O         0.972494         0.785841        -1.624192
 C         2.271864         0.718335        -0.971602
 C         3.052335        -0.448504        -1.786758
 C         2.129139         0.233367         0.434780
 O         2.776848         0.860158         1.325674
 H         3.403213        -1.647319        -4.875561
 H         2.378098        -2.524804        -3.696442
 H         1.681659        -1.448721        -4.807040
 H         2.839444         1.728755        -3.291627
 H         2.121441         0.903968        -4.843062
 H         0.146445         0.201915        -3.358098
 H         2.798603         1.662529        -0.952249
 H         4.057406        -0.130934        -2.036833
 H         3.084998        -1.408335        -1.271528
 H         1.471843        -0.701942         0.519082
