19
Iteration:  3743
 C         2.571704        -1.707959        -3.979177
 C         2.413930        -0.390053        -3.257845
 C         2.254411         1.050136        -3.908062
 C         1.154369         0.372966        -3.038995
 O         0.982725         0.689684        -1.620125
 C         2.411493         0.680162        -0.978017
 C         3.130099        -0.424478        -1.856124
 C         2.173268         0.282391         0.481125
 O         2.687819         0.783333         1.470576
 H         3.397177        -1.980584        -4.628795
 H         2.180392        -2.598492        -3.433833
 H         1.712512        -1.597550        -4.726525
 H         2.850503         1.785711        -3.436786
 H         1.952150         1.457272        -4.982825
 H         0.204822         0.145128        -3.450366
 H         2.970825         1.661230        -0.980521
 H         4.188913        -0.342817        -1.961809
 H         2.853757        -1.418499        -1.424682
 H         1.274550        -0.291028         0.535865
