19
Iteration:  2918
 C         2.603932        -1.676925        -3.958914
 C         2.475351        -0.389046        -3.132939
 C         2.215967         1.132362        -3.802244
 C         1.147243         0.396783        -3.057835
 O         0.905703         0.650796        -1.730385
 C         2.178165         0.646135        -1.016821
 C         3.056594        -0.481473        -1.764926
 C         2.069089         0.514272         0.548547
 O         3.009295         0.581937         1.247353
 H         3.685944        -1.976273        -3.788650
 H         2.023597        -2.560779        -3.483678
 H         2.436294        -1.470037        -5.063826
 H         2.754045         1.961140        -3.340161
 H         2.254170         1.185129        -4.919345
 H         0.274859        -0.104597        -3.497249
 H         2.590048         1.710382        -1.028166
 H         4.043461        -0.031136        -1.673284
 H         2.932915        -1.569345        -1.309842
 H         1.034693         0.166112         0.713420
