19
Iteration:  3662charge 0 multiplicity 1
 C         2.636557        -1.632068        -4.105104
 C         2.475354        -0.371319        -3.240313
 C         2.206329         1.052695        -3.814277
 C         1.144619         0.334009        -3.029454
 O         0.968353         0.661885        -1.613830
 C         2.305801         0.584382        -1.047979
 C         2.980021        -0.471625        -1.794272
 C         2.128559         0.420220         0.576089
 O         2.865410         0.802560         1.370510
 H         3.788325        -1.866099        -4.181104
 H         2.252405        -2.516441        -3.535930
 H         2.221878        -1.609625        -5.109543
 H         2.726909         1.772856        -3.187859
 H         2.134578         1.176182        -4.871747
 H         0.201606         0.002034        -3.544132
 H         2.920419         1.535131        -1.157834
 H         4.047993        -0.809755        -1.584334
 H         2.368506        -1.371907        -1.494585
 H         1.097062         0.011005         0.690686
