19
Iteration:   706
 C         2.484389        -1.700728        -3.913826
 C         2.472408        -0.449608        -3.096489
 C         2.333193         0.975736        -3.830585
 C         1.288415         0.431637        -3.051041
 O         0.965195         0.798202        -1.731564
 C         2.315148         0.651934        -0.966430
 C         3.132090        -0.412187        -1.784424
 C         1.913190         0.535180         0.463853
 O         2.830179         0.487457         1.311104
 H         1.531365        -2.351424        -3.737624
 H         2.171022        -1.364399        -5.037605
 H         3.420605        -2.145260        -4.115488
 H         2.896508         1.909330        -3.545714
 H         2.243762         0.826213        -4.929860
 H         0.321163         0.154788        -3.514953
 H         2.785057         1.641025        -1.175539
 H         4.139047        -0.035327        -1.952456
 H         3.195830        -1.364807        -1.245439
 H         0.930749         0.512844         0.796891
