19
Iteration:   370
 C         2.404520        -1.704261        -4.013515
 C         2.500493        -0.426232        -3.141880
 C         2.218863         0.859628        -3.896013
 C         1.231672         0.383314        -2.951255
 O         1.123372         0.880231        -1.669470
 C         2.382492         0.784175        -1.014179
 C         3.288954        -0.317391        -1.867472
 C         1.982086         0.319172         0.480933
 O         2.614693         0.582229         1.438157
 H         1.970002        -2.492775        -3.453504
 H         1.932301        -1.382683        -4.946106
 H         3.430053        -2.233564        -4.364054
 H         2.818710         1.773683        -3.885445
 H         1.951549         0.676714        -4.974995
 H         0.356310        -0.005174        -3.521971
 H         2.780426         1.782686        -0.919384
 H         4.306488        -0.034398        -1.911656
 H         3.135948        -1.150335        -1.211619
 H         1.025949        -0.366112         0.402991
