19
Iteration:  3304charge 0 multiplicity 1
 C         2.775755        -1.827443        -3.569077
 C         2.548484        -0.302676        -3.099662
 C         1.869328         0.806312        -3.960413
 C         1.080469         0.254328        -2.906642
 O         1.036188         1.049626        -1.736633
 C         2.320820         1.005272        -1.068653
 C         3.314152         0.089314        -1.860658
 C         2.094541         0.521334         0.385717
 O         2.673635        -0.176876         1.116382
 H         3.825379        -2.164303        -3.886582
 H         2.353816        -2.596455        -2.806041
 H         2.067876        -2.000353        -4.420824
 H         2.223407         1.917745        -3.836110
 H         1.568298         0.553244        -4.935728
 H         0.225919        -0.438603        -3.012564
 H         2.796784         2.034440        -0.924960
 H         4.201774         0.666319        -2.222976
 H         3.804130        -0.685698        -1.155898
 H         1.154538         0.920342         0.728966
