19
Iteration:    14charge 0 multiplicity 1
 C         2.780854        -1.823533        -3.753636
 C         2.487126        -0.385393        -3.112805
 C         2.169249         0.930955        -3.891435
 C         1.096371         0.385150        -2.986915
 O         0.909455         0.855962        -1.632216
 C         2.213409         0.933570        -1.053046
 C         3.116838        -0.186696        -1.725146
 C         1.963639         0.592594         0.358547
 O         2.900840         0.138367         1.121070
 H         2.657987        -2.740021        -3.255477
 H         2.347500        -1.798750        -4.929020
 H         3.916224        -1.796131        -3.924901
 H         2.872650         1.626011        -3.495201
 H         2.297914         0.922325        -5.004370
 H         0.132463         0.073286        -3.322267
 H         2.623960         1.894704        -1.215160
 H         4.222970         0.007834        -1.473740
 H         2.741419        -1.182000        -1.245499
 H         0.911996         0.458702         0.674488
