19
Iteration:   317charge 0 multiplicity 1
 C         2.567368        -1.770705        -4.014927
 C         2.373628        -0.418491        -3.187988
 C         2.160700         0.953331        -3.858853
 C         1.090626         0.496261        -2.901322
 O         1.257052         0.981486        -1.572490
 C         2.540889         0.640722        -1.025658
 C         3.139899        -0.480568        -1.810574
 C         2.253545         0.104891         0.329482
 O         2.319476         0.820471         1.356507
 H         2.564095        -2.599020        -3.283750
 H         1.807667        -1.915277        -4.752562
 H         3.578976        -1.878924        -4.499063
 H         2.822835         1.824231        -3.627649
 H         1.715355         0.928233        -4.902057
 H         0.103844         0.492006        -3.390012
 H         3.139635         1.528640        -1.016248
 H         4.223945        -0.246837        -1.785969
 H         3.008750        -1.546537        -1.283664
 H         1.905731        -0.963150         0.303826
