19
Iteration:  1534charge 0 multiplicity 1
 C         2.613957        -1.844041        -3.710836
 C         2.305031        -0.417597        -3.126837
 C         2.077828         0.902195        -3.957424
 C         1.085378         0.445074        -2.851865
 O         1.171801         1.063533        -1.576522
 C         2.457654         0.745785        -1.004537
 C         3.224759        -0.057181        -2.021999
 C         2.301181        -0.004798         0.266134
 O         2.399498         0.525727         1.319368
 H         3.662147        -1.891877        -3.962625
 H         2.403004        -2.537552        -2.849400
 H         2.103033        -2.118941        -4.736810
 H         2.639834         1.729982        -3.903253
 H         1.762973         0.749803        -5.022276
 H         0.163215         0.098733        -3.178488
 H         3.116541         1.640313        -0.780272
 H         4.099956         0.416479        -2.353027
 H         3.757975        -0.932381        -1.664079
 H         1.970448        -1.062480         0.122134
