19
Iteration:  4978
 C         2.566187        -1.656404        -4.013916
 C         2.410406        -0.413551        -3.092991
 C         2.321384         0.873129        -3.872609
 C         1.115233         0.383777        -2.989141
 O         1.020562         1.011042        -1.678745
 C         2.256689         0.629454        -0.998818
 C         3.051920        -0.463220        -1.707816
 C         2.007029         0.452770         0.476170
 O         2.874743         0.532742         1.231327
 H         3.578661        -1.542029        -4.489307
 H         2.533406        -2.656361        -3.339329
 H         1.768175        -1.843469        -4.761253
 H         3.182540         1.625492        -3.618875
 H         2.149627         0.733846        -4.967909
 H         0.141240         0.191886        -3.314567
 H         2.951213         1.541645        -1.146171
 H         4.119316        -0.250566        -1.679191
 H         3.074257        -1.519716        -1.287758
 H         1.052642         0.098057         0.814928
