19
Iteration:  3417
 C         2.739077        -1.790320        -3.611511
 C         2.540204        -0.408667        -3.121536
 C         2.077504         0.738823        -3.969781
 C         1.112432         0.385309        -2.888616
 O         0.932978         1.056059        -1.652917
 C         2.255836         0.969980        -1.030819
 C         3.148025         0.046240        -1.837620
 C         2.049204         0.445351         0.385021
 O         2.827232        -0.035384         1.095824
 H         3.626426        -1.695877        -4.292164
 H         2.851523        -2.535239        -2.841701
 H         2.114111        -2.185402        -4.502702
 H         2.612405         1.679833        -4.014837
 H         1.786951         0.354258        -5.057104
 H         0.199365        -0.113284        -3.247248
 H         2.745762         2.003228        -0.917183
 H         4.109609         0.517506        -2.052839
 H         3.483146        -0.799723        -1.234134
 H         0.861197         0.536602         0.630715
