19
Iteration:  3047charge 0 multiplicity 1
 C         2.604437        -1.696046        -3.861606
 C         2.514370        -0.412314        -3.038344
 C         2.229338         0.746531        -3.872379
 C         1.120553         0.250823        -2.850131
 O         0.849554         0.903678        -1.666414
 C         2.276042         0.989408        -1.063654
 C         3.284696        -0.000372        -1.821159
 C         2.015746         0.496202         0.371892
 O         2.845568         0.107514         1.196482
 H         3.353207        -1.540762        -4.673146
 H         2.563608        -2.613353        -3.338688
 H         1.650976        -1.876265        -4.403679
 H         2.587388         1.648709        -3.541395
 H         2.090334         0.808182        -4.995499
 H         0.181715        -0.215024        -3.229202
 H         2.615079         2.009631        -1.045424
 H         4.317783         0.342656        -2.069775
 H         3.626103        -0.905548        -1.357774
 H         0.973001         0.402951         0.462996
