19
Iteration:  3808
 C         2.520120        -1.743803        -3.992475
 C         2.345306        -0.462563        -3.125414
 C         2.223603         0.852250        -3.920534
 C         1.072325         0.305434        -2.910214
 O         1.093733         0.987575        -1.708312
 C         2.350850         0.793052        -1.016171
 C         3.203986        -0.204202        -1.827756
 C         2.218483         0.196840         0.361173
 O         2.659406         0.581375         1.499006
 H         3.559186        -2.024946        -4.019451
 H         1.768556        -2.530757        -3.758304
 H         2.387312        -1.304754        -5.013704
 H         2.934060         1.347649        -3.377221
 H         1.959590         0.978651        -5.053604
 H         0.165951         0.097881        -3.389929
 H         2.665664         1.875573        -0.984209
 H         4.113508         0.266197        -2.141244
 H         3.356954        -1.217945        -1.373383
 H         1.444327        -0.686664         0.309746
