19
Iteration:  2075charge 0 multiplicity 1
 C         2.575796        -1.820351        -3.707704
 C         2.397397        -0.440762        -3.177351
 C         2.020095         0.844197        -3.970446
 C         1.114127         0.345649        -2.891092
 O         1.166505         1.083551        -1.708290
 C         2.492000         0.924434        -1.057807
 C         3.241806        -0.094585        -1.949167
 C         2.211989         0.170147         0.259337
 O         2.491012         0.357752         1.477281
 H         3.594888        -1.812123        -4.136127
 H         2.502947        -2.558867        -2.868726
 H         1.728696        -2.107045        -4.353708
 H         2.442082         1.750871        -3.536549
 H         1.726026         0.924626        -5.098379
 H         0.172139        -0.136241        -3.049822
 H         2.875802         1.940413        -1.183144
 H         4.285808         0.360758        -2.089507
 H         3.432928        -1.045567        -1.495028
 H         1.699127        -0.774307         0.102986
