19
Iteration:  4157
 C         2.508449        -1.718907        -3.966783
 C         2.511069        -0.374338        -3.225235
 C         2.291529         1.037087        -3.849848
 C         1.153391         0.400041        -3.035561
 O         0.939985         0.757454        -1.636870
 C         2.275480         0.801924        -1.009715
 C         3.071674        -0.440904        -1.748386
 C         2.194999         0.371762         0.406001
 O         2.846218         0.579521         1.359435
 H         3.495382        -2.240962        -4.094509
 H         1.984301        -2.323167        -3.168968
 H         1.914258        -1.711861        -4.941549
 H         2.894908         1.839186        -3.559375
 H         2.082413         0.846371        -4.962902
 H         0.217143         0.212042        -3.590519
 H         2.603692         1.847355        -1.172074
 H         4.082523        -0.597060        -1.441369
 H         2.447770        -1.248348        -1.246687
 H         1.250878        -0.187808         0.435871
