19
Iteration:  4247
 C         2.463446        -1.701116        -3.893467
 C         2.448825        -0.406573        -3.191316
 C         2.114885         0.966454        -3.980364
 C         1.135582         0.376447        -3.014030
 O         1.157845         0.907207        -1.644888
 C         2.475514         0.722393        -1.079506
 C         3.122236        -0.409764        -1.781753
 C         2.234205         0.340689         0.328154
 O         2.587587         0.580776         1.541368
 H         3.345295        -1.806279        -4.475944
 H         2.340555        -2.614973        -3.224498
 H         1.706688        -1.662035        -4.771232
 H         2.608634         1.905154        -3.642328
 H         2.024627         0.919223        -4.988819
 H         0.205687        -0.157195        -3.230819
 H         3.143019         1.623209        -1.104788
 H         4.163032        -0.083905        -1.729893
 H         2.862066        -1.430528        -1.403776
 H         1.362641        -0.412082         0.247127
