19
Iteration:  4802charge 0 multiplicity 1
 C         2.437015        -1.778399        -3.946339
 C         2.435025        -0.413676        -3.147378
 C         2.138491         0.897239        -3.887521
 C         1.127691         0.322610        -2.920748
 O         1.251783         1.098338        -1.790322
 C         2.391490         0.702231        -0.995673
 C         3.270815        -0.319230        -1.805159
 C         2.006079         0.181791         0.437057
 O         2.649512         0.583611         1.383769
 H         3.313985        -1.746538        -4.599360
 H         2.379340        -2.619710        -3.244085
 H         1.626137        -1.658914        -4.680633
 H         2.633304         1.804823        -3.588564
 H         2.093722         0.671746        -4.991189
 H         0.078364        -0.006087        -3.309841
 H         2.847219         1.635464        -0.822937
 H         4.224156         0.100288        -1.914880
 H         3.346068        -1.196606        -1.105199
 H         0.987113        -0.256057         0.612699
