19
Iteration:  4974charge 0 multiplicity 1
 C         2.570016        -1.651284        -3.984150
 C         2.404045        -0.407571        -3.135979
 C         2.311393         0.845307        -3.850346
 C         1.111327         0.387415        -2.980950
 O         1.051466         1.009758        -1.659335
 C         2.242864         0.632655        -1.047852
 C         3.090841        -0.484406        -1.730206
 C         1.976781         0.451684         0.456671
 O         2.886502         0.536043         1.248706
 H         3.612388        -1.596939        -4.423135
 H         2.539917        -2.442789        -3.289149
 H         1.725498        -1.829905        -4.718093
 H         3.046076         1.544562        -3.566488
 H         2.228133         0.763678        -4.905706
 H         0.006236         0.290929        -3.348725
 H         2.842644         1.640848        -0.922372
 H         4.131756        -0.196667        -1.689621
 H         3.050018        -1.556986        -1.389676
 H         0.948350         0.113212         0.757716
