19
Iteration:  2202charge 0 multiplicity 1
 C         2.505919        -1.790169        -3.746495
 C         2.466501        -0.416130        -3.013783
 C         2.089168         0.759762        -3.890846
 C         1.144653         0.319308        -2.836412
 O         1.087960         1.165449        -1.721066
 C         2.407179         0.895434        -1.037460
 C         3.329618         0.003555        -1.808284
 C         2.061471         0.103931         0.185567
 O         2.623593         0.339870         1.239214
 H         3.521165        -1.968632        -4.184819
 H         2.415169        -2.697692        -3.078858
 H         1.844987        -1.769467        -4.592277
 H         2.589358         1.651362        -3.917760
 H         1.772372         0.476521        -4.894040
 H         0.203410        -0.122942        -3.193923
 H         2.712378         1.879596        -0.753596
 H         4.142583         0.443019        -2.301110
 H         3.599815        -0.939646        -1.252974
 H         1.381803        -0.793755         0.313928
