19
Iteration:  1523charge 0 multiplicity 1
 C         2.593863        -1.730894        -3.666636
 C         2.345270        -0.378628        -3.073621
 C         2.015464         0.879444        -3.881116
 C         1.056990         0.380713        -2.917993
 O         1.204518         1.057518        -1.626383
 C         2.465203         0.748153        -1.097239
 C         3.335421        -0.103874        -1.984254
 C         2.284112        -0.039417         0.205571
 O         2.419487         0.528496         1.326235
 H         3.626719        -1.859431        -3.943122
 H         2.377209        -2.630219        -3.000724
 H         1.821416        -1.939790        -4.534526
 H         2.535277         1.693741        -3.631672
 H         1.885717         0.635289        -4.956110
 H         0.065077         0.195924        -3.155883
 H         2.815854         1.781224        -0.810701
 H         4.140374         0.446367        -2.345443
 H         3.435564        -1.008233        -1.413449
 H         1.775436        -1.005146         0.240404
