19
Iteration:  4509charge 0 multiplicity 1
 C         2.507667        -1.690593        -4.044077
 C         2.450039        -0.424873        -3.144512
 C         2.409059         0.866059        -3.845389
 C         1.215988         0.323173        -3.012488
 O         0.917894         0.805725        -1.733874
 C         2.278688         0.805632        -0.976431
 C         3.003771        -0.332592        -1.698882
 C         1.999000         0.579328         0.474333
 O         2.972895         0.431659         1.314642
 H         3.500129        -2.102827        -4.243915
 H         1.926272        -2.516457        -3.455187
 H         1.867838        -1.517876        -4.987501
 H         2.879145         1.699661        -3.403313
 H         1.936934         0.913457        -4.802717
 H         0.329062         0.204091        -3.575636
 H         2.649208         1.838905        -1.059352
 H         4.093523        -0.190646        -1.783841
 H         2.901582        -1.348178        -1.178815
 H         0.926070         0.446984         0.829305
