19
Iteration:  1681
 C         2.561953        -1.722689        -3.812482
 C         2.513455        -0.404371        -3.128884
 C         2.013292         0.886001        -4.002374
 C         1.177532         0.288969        -2.920242
 O         1.109516         1.027376        -1.698555
 C         2.383624         0.828165        -0.992968
 C         3.199745        -0.112792        -1.847118
 C         2.097323         0.106568         0.384573
 O         2.660121         0.487154         1.332806
 H         3.687465        -1.910337        -4.043111
 H         2.150594        -2.512263        -3.078422
 H         1.915721        -1.756980        -4.651788
 H         2.372722         1.835337        -3.889099
 H         1.712737         0.513557        -5.026417
 H         0.252294        -0.122325        -3.216171
 H         2.875295         1.733949        -0.746785
 H         4.250515         0.263014        -1.973043
 H         3.296294        -1.145629        -1.439594
 H         1.433608        -0.816570         0.413046
