19
Iteration:   369
 C         2.408343        -1.703874        -4.013708
 C         2.495434        -0.426014        -3.147237
 C         2.211651         0.861000        -3.899949
 C         1.227354         0.393109        -2.947506
 O         1.126859         0.880271        -1.682606
 C         2.388132         0.772859        -1.007346
 C         3.292241        -0.322728        -1.861770
 C         1.988086         0.315483         0.487058
 O         2.610026         0.589796         1.441739
 H         2.009363        -2.483354        -3.440391
 H         1.922959        -1.366840        -4.968107
 H         3.412730        -2.238188        -4.355244
 H         2.805978         1.779913        -3.890553
 H         1.967496         0.646802        -4.948717
 H         0.322556         0.007284        -3.522927
 H         2.788370         1.790504        -0.909882
 H         4.313157        -0.050347        -1.930422
 H         3.148160        -1.128341        -1.222768
 H         1.009926        -0.408019         0.400935
