19
Iteration:  3057charge 0 multiplicity 1
 C         2.578199        -1.734175        -3.887864
 C         2.521943        -0.433842        -2.994683
 C         2.135464         0.826676        -3.822956
 C         1.108859         0.181369        -3.004470
 O         0.924812         0.969202        -1.657987
 C         2.247154         0.960155        -1.014733
 C         3.329817         0.013385        -1.788725
 C         1.994949         0.493443         0.373568
 O         2.857193         0.089365         1.152565
 H         3.412133        -1.842348        -4.619134
 H         2.759757        -2.628942        -3.324831
 H         1.609882        -1.745083        -4.404041
 H         2.583967         1.716152        -3.537053
 H         2.186489         0.581912        -4.926769
 H         0.227872        -0.417668        -3.332823
 H         2.617413         1.982430        -0.998821
 H         4.217943         0.696815        -2.068273
 H         3.494929        -0.786349        -1.092110
 H         1.004417         0.553269         0.729032
