19
Iteration:  4624charge 0 multiplicity 1
 C         2.530707        -1.668394        -3.964114
 C         2.421600        -0.413750        -3.070307
 C         2.223499         0.930813        -3.799717
 C         1.178915         0.311133        -2.915462
 O         1.102407         0.976252        -1.750401
 C         2.342041         0.764819        -1.040713
 C         3.084400        -0.473784        -1.703442
 C         1.922207         0.453767         0.349245
 O         2.864319         0.461738         1.242424
 H         3.627328        -1.620858        -4.253981
 H         2.518169        -2.561641        -3.338609
 H         1.826860        -1.762205        -4.805185
 H         2.563501         1.915325        -3.605231
 H         2.116859         0.749603        -4.902664
 H         0.233873        -0.027053        -3.369825
 H         3.006375         1.614132        -1.072959
 H         4.200691        -0.380623        -1.707823
 H         2.769535        -1.340862        -1.101362
 H         0.857803         0.296780         0.678733
