19
Iteration:  1001charge 0 multiplicity 1
 C         2.424086        -1.768046        -3.748846
 C         2.440147        -0.378718        -3.123033
 C         2.403942         0.926571        -3.924520
 C         1.254726         0.379725        -3.075862
 O         0.924962         0.780939        -1.711574
 C         2.174259         0.887933        -0.987911
 C         3.130665        -0.055102        -1.806114
 C         2.035772         0.394071         0.458329
 O         2.932711         0.249805         1.225117
 H         2.335311        -1.704388        -4.835719
 H         3.283694        -2.396358        -3.404849
 H         1.451482        -2.237982        -3.554442
 H         3.040939         1.778976        -3.667671
 H         2.088392         0.713162        -4.889677
 H         0.366335         0.053279        -3.537664
 H         2.535826         1.912014        -0.975407
 H         4.169512         0.322294        -1.862254
 H         3.241674        -0.986939        -1.093088
 H         1.029564         0.151385         0.756331
