19
Iteration:  1518
 C         2.547488        -1.700426        -3.662751
 C         2.373580        -0.396435        -3.107229
 C         2.023024         0.858623        -3.900123
 C         1.045370         0.356477        -2.894881
 O         1.180399         1.046885        -1.670239
 C         2.497502         0.778088        -1.080225
 C         3.353720        -0.110907        -1.948113
 C         2.231804        -0.015497         0.224793
 O         2.439022         0.523309         1.323366
 H         3.611267        -1.795072        -4.079522
 H         2.355436        -2.489188        -2.972772
 H         1.924282        -1.827198        -4.479715
 H         2.569872         1.823346        -3.435980
 H         1.795414         0.664024        -4.942669
 H        -0.068909         0.083040        -3.033940
 H         2.853777         1.752797        -0.750638
 H         4.369178         0.324949        -2.325155
 H         3.612572        -1.060578        -1.395438
 H         1.812557        -1.087178         0.049089
