19
Iteration:   235
 C         2.355244        -1.610147        -4.035758
 C         2.476109        -0.353938        -3.257057
 C         2.267064         0.946998        -3.860642
 C         1.199783         0.446987        -2.892838
 O         1.265978         0.639343        -1.465797
 C         2.553336         0.474577        -0.995206
 C         3.212753        -0.444080        -1.982923
 C         2.252896         0.202119         0.501217
 O         2.202427         1.023254         1.302304
 H         1.799653        -2.312629        -3.300269
 H         1.679064        -1.469494        -5.040773
 H         3.288011        -2.173138        -4.413169
 H         2.810644         1.769192        -3.448030
 H         2.091677         1.113814        -4.940036
 H         0.218494         0.205806        -3.245318
 H         3.083070         1.480158        -1.044343
 H         4.245535        -0.003650        -2.010304
 H         3.273680        -1.492940        -1.716145
 H         1.826900        -0.915051         0.723958
