19
Iteration:  4968charge 0 multiplicity 1
 C         2.571448        -1.641367        -3.940498
 C         2.390980        -0.445629        -3.175986
 C         2.288074         0.833390        -3.827685
 C         1.103769         0.419645        -2.969435
 O         1.082160         0.982077        -1.666641
 C         2.254959         0.673939        -1.043607
 C         3.114259        -0.484731        -1.787525
 C         1.945188         0.422476         0.427106
 O         2.897310         0.542288         1.277674
 H         3.551719        -1.732335        -4.418479
 H         2.547364        -2.499712        -3.132659
 H         1.798251        -1.761052        -4.685161
 H         2.874674         1.750058        -3.397688
 H         2.269062         0.799879        -4.946274
 H         0.178697         0.325161        -3.405283
 H         2.787408         1.569707        -0.808337
 H         4.165186        -0.140598        -1.770411
 H         2.905815        -1.501944        -1.402647
 H         0.853919         0.214285         0.661866
