19
Iteration:  2596
 C         2.604533        -1.808967        -3.586713
 C         2.309035        -0.373792        -3.259326
 C         2.274557         0.936711        -4.008772
 C         1.134368         0.439148        -3.031330
 O         1.028660         0.936319        -1.688076
 C         2.261564         0.763846        -1.036754
 C         3.168001        -0.129141        -1.858457
 C         2.009884         0.288828         0.461532
 O         2.870486         0.315008         1.241057
 H         3.783443        -2.259585        -3.648171
 H         2.159084        -2.418582        -2.749466
 H         2.241814        -2.129372        -4.603487
 H         2.694565         1.739853        -3.429799
 H         1.997925         0.977724        -5.050632
 H         0.106585         0.226543        -3.319351
 H         2.617305         1.816490        -0.761898
 H         4.098341         0.504495        -2.080205
 H         3.396580        -1.152944        -1.397165
 H         1.000092         0.014383         0.682700
