19
Iteration:   832
 C         2.405830        -1.676496        -3.900465
 C         2.437198        -0.396075        -3.180968
 C         2.550631         0.977197        -3.818257
 C         1.256656         0.491145        -3.034656
 O         0.923560         0.740040        -1.734547
 C         2.178478         0.705955        -1.037576
 C         2.983081        -0.350402        -1.757504
 C         2.140032         0.291715         0.418900
 O         2.832280         0.630134         1.342341
 H         2.137076        -2.441995        -3.241662
 H         1.822748        -1.762179        -4.787984
 H         3.523926        -1.967542        -3.971231
 H         3.187115         1.715369        -3.323210
 H         2.239559         1.100232        -4.869144
 H         0.408253         0.427041        -3.728562
 H         2.548125         1.711057        -1.114175
 H         4.115148        -0.350771        -1.549296
 H         2.654019        -1.397900        -1.340463
 H         1.470908        -0.723844         0.587419
