19
Iteration:  4392
 C         2.406423        -1.806861        -3.895243
 C         2.465180        -0.473296        -3.203389
 C         2.285380         0.910370        -3.926323
 C         1.168143         0.445678        -3.032837
 O         1.037487         0.967599        -1.660638
 C         2.261319         0.723236        -0.956872
 C         3.205691        -0.208897        -1.879706
 C         2.082701         0.159511         0.457888
 O         2.765046         0.609745         1.422170
 H         3.356168        -2.279621        -4.109926
 H         1.988562        -2.612779        -3.300234
 H         1.837057        -1.590137        -4.760978
 H         3.143533         1.550633        -3.586533
 H         1.990163         0.882185        -5.007895
 H         0.247356         0.379854        -3.544035
 H         2.843700         1.685505        -0.965558
 H         4.231516         0.208206        -2.169745
 H         3.360470        -1.099864        -1.286504
 H         1.285537        -0.608047         0.453685
