19
Iteration:  1602
 C         2.419979        -1.746357        -3.844987
 C         2.552449        -0.355982        -3.135867
 C         1.970828         0.851765        -3.848101
 C         1.208967         0.232763        -2.773557
 O         1.210520         1.028580        -1.673897
 C         2.475159         0.789832        -1.032172
 C         3.407335        -0.037200        -1.938114
 C         2.088477         0.065655         0.240076
 O         2.447068         0.538839         1.311535
 H         3.223347        -1.957160        -4.566065
 H         2.304520        -2.673374        -3.122215
 H         1.553452        -1.679606        -4.569905
 H         2.333671         1.929590        -3.903155
 H         1.663363         0.704448        -4.812061
 H         0.374042        -0.538009        -2.841964
 H         2.783475         1.784316        -0.690638
 H         4.420783         0.323708        -2.020350
 H         3.597159        -1.014272        -1.383154
 H         1.371581        -0.810718         0.361973
