19
Iteration:  4531
 C         2.460033        -1.710508        -3.888713
 C         2.510319        -0.415641        -3.064141
 C         2.309022         1.032627        -3.765776
 C         1.206393         0.351844        -3.027249
 O         0.925621         0.795069        -1.714660
 C         2.261865         0.712979        -1.042572
 C         3.105406        -0.417744        -1.689033
 C         1.960542         0.563866         0.359252
 O         2.965895         0.442864         1.143133
 H         3.448369        -2.163269        -4.028943
 H         1.743797        -2.526656        -3.455859
 H         2.001415        -1.371965        -4.880917
 H         2.854082         1.689824        -3.088568
 H         2.610385         1.195237        -4.764817
 H         0.279834         0.072337        -3.421457
 H         2.607453         1.741989        -1.206494
 H         4.201317        -0.247256        -1.594806
 H         2.874020        -1.426384        -1.201273
 H         0.980868         0.558342         0.859863
