19
Iteration:  3440charge 0 multiplicity 1
 C         2.763057        -1.790572        -3.622372
 C         2.321335        -0.452704        -3.095880
 C         2.016740         0.849788        -4.065505
 C         1.084329         0.360118        -2.958241
 O         1.042681         0.959647        -1.717953
 C         2.329506         0.897226        -0.988656
 C         3.286474         0.061300        -1.932434
 C         1.970039         0.474814         0.459357
 O         2.809797         0.015433         1.254897
 H         3.794511        -1.669812        -4.062138
 H         2.713027        -2.475836        -2.770693
 H         2.219401        -2.237123        -4.556503
 H         2.692139         1.703152        -3.785857
 H         1.760988         0.781281        -5.139101
 H         0.074291         0.077368        -3.334104
 H         2.792303         1.917478        -0.746056
 H         4.161196         0.454757        -2.444694
 H         3.706164        -0.701723        -1.292806
 H         0.808848         0.478162         0.645689
