19
Iteration:   605charge 0 multiplicity 1
 C         2.630719        -1.738493        -3.908123
 C         2.441291        -0.422327        -3.100899
 C         2.248785         0.874906        -3.901024
 C         1.149954         0.413348        -3.063781
 O         0.994553         1.003672        -1.783599
 C         2.326420         0.851367        -0.990135
 C         3.059141        -0.347680        -1.653231
 C         2.013211         0.444313         0.407686
 O         2.811996         0.298493         1.341650
 H         2.547980        -2.661561        -3.248472
 H         1.946685        -1.794662        -4.825698
 H         3.648809        -1.824361        -4.439403
 H         2.874772         1.687581        -3.635103
 H         2.227529         0.707587        -4.992072
 H         0.183373         0.142545        -3.488950
 H         2.973751         1.759837        -1.146810
 H         4.154780        -0.071398        -1.642190
 H         2.865874        -1.233707        -1.049441
 H         0.860113         0.291105         0.715662
