19
Iteration:  1143charge 0 multiplicity 1
 C         2.527636        -1.703076        -3.924408
 C         2.423293        -0.355676        -3.212818
 C         2.200862         0.969911        -3.924027
 C         1.158048         0.367415        -3.017744
 O         1.000196         0.694907        -1.622676
 C         2.412096         0.834568        -1.039316
 C         3.122936        -0.326364        -1.832957
 C         2.069553         0.401559         0.418712
 O         2.840895         0.512060         1.425559
 H         3.447530        -2.091258        -3.689820
 H         1.679588        -2.303121        -3.558726
 H         2.660960        -1.630298        -5.015361
 H         2.703906         1.817965        -3.597536
 H         1.892203         0.750248        -4.964117
 H         0.065971         0.100022        -3.441813
 H         2.724728         1.891542        -1.066311
 H         4.198218        -0.328324        -1.742418
 H         2.825925        -1.215220        -1.231026
 H         1.001259         0.177165         0.517856
