19
Iteration:  4584
 C         2.607096        -1.758501        -3.985420
 C         2.372686        -0.475175        -3.187469
 C         2.411516         0.899432        -3.877130
 C         1.185821         0.402609        -3.082811
 O         0.904550         0.903168        -1.718595
 C         2.233633         0.816973        -0.994106
 C         2.930656        -0.345657        -1.718828
 C         2.008215         0.509367         0.553944
 O         3.031231         0.407150         1.319265
 H         3.657562        -1.745373        -4.021116
 H         2.302412        -2.651496        -3.462078
 H         2.267495        -1.833915        -5.048564
 H         3.018078         1.718071        -3.619611
 H         1.882216         0.858667        -4.793633
 H         0.297426         0.205443        -3.580389
 H         2.597289         1.890465        -1.087015
 H         3.960751        -0.350021        -1.645091
 H         2.710235        -1.306876        -1.273786
 H         0.967561         0.403000         1.083167
