19
Iteration:  2598
 C         2.606427        -1.802737        -3.584556
 C         2.327938        -0.377582        -3.262642
 C         2.263950         0.926506        -4.006127
 C         1.124373         0.444938        -3.021918
 O         1.019994         0.949342        -1.685672
 C         2.276357         0.745763        -1.039871
 C         3.165102        -0.129265        -1.850027
 C         2.009904         0.291753         0.427029
 O         2.872952         0.316980         1.246735
 H         3.690998        -2.224000        -3.706033
 H         2.155460        -2.452580        -2.724038
 H         2.273974        -2.097950        -4.631343
 H         2.758119         1.842348        -3.507724
 H         2.030837         0.906863        -4.992399
 H         0.113583         0.185407        -3.240237
 H         2.558270         1.804689        -0.751586
 H         4.161808         0.474652        -2.032678
 H         3.356928        -1.100335        -1.347902
 H         0.949895        -0.052479         0.666116
