19
Iteration:  1223
 C         2.586525        -1.650580        -3.993028
 C         2.437922        -0.366341        -3.171182
 C         2.310872         0.977719        -3.798918
 C         1.173990         0.425257        -3.015752
 O         0.908426         0.753157        -1.611529
 C         2.249407         0.716408        -1.062491
 C         2.978168        -0.502263        -1.786496
 C         2.192471         0.327376         0.415231
 O         2.885243         0.719317         1.327596
 H         3.649333        -1.818967        -4.418085
 H         2.412542        -2.580243        -3.420441
 H         1.818505        -1.729596        -4.691781
 H         2.969623         1.839035        -3.524921
 H         2.233766         0.968913        -4.885476
 H         0.301125         0.020915        -3.355922
 H         2.655033         1.683521        -1.249946
 H         4.073899        -0.450728        -1.559066
 H         2.361797        -1.416715        -1.355951
 H         1.299508        -0.454648         0.621374
