19
Iteration:  4945charge 0 multiplicity 1
 C         2.500256        -1.824015        -3.937504
 C         2.374239        -0.430791        -3.193290
 C         2.250856         1.047299        -3.879878
 C         1.154842         0.355894        -3.023983
 O         1.075114         0.904455        -1.669037
 C         2.374869         0.776912        -1.099913
 C         3.088035        -0.374374        -1.719152
 C         2.052104         0.456782         0.422478
 O         2.802115         0.479905         1.397282
 H         3.575373        -1.957266        -4.196469
 H         2.267882        -2.661918        -3.165458
 H         1.875955        -1.872990        -4.849628
 H         3.058677         1.784975        -3.494364
 H         2.097415         1.073196        -4.968818
 H         0.188100         0.069310        -3.411757
 H         2.861618         1.692622        -1.010422
 H         4.107965        -0.089035        -1.834266
 H         2.942945        -1.404167        -1.324457
 H         1.071417        -0.129421         0.443833
