19
Iteration:  3462charge 0 multiplicity 1
 C         2.708343        -1.761679        -3.665293
 C         2.478178        -0.273676        -3.138181
 C         2.047167         0.833176        -4.016937
 C         1.072367         0.225182        -2.891019
 O         1.043217         0.989632        -1.728277
 C         2.284448         0.823948        -1.062654
 C         3.277221         0.026462        -1.925076
 C         2.029887         0.414788         0.368154
 O         2.776135         0.088579         1.351158
 H         3.700035        -2.074887        -4.035967
 H         2.233515        -2.261105        -2.876012
 H         1.966458        -1.892339        -4.523475
 H         2.358175         1.913198        -3.847981
 H         1.760067         0.625152        -5.015899
 H         0.163578        -0.333813        -3.170042
 H         2.829525         1.782102        -0.849026
 H         4.233350         0.552039        -2.136028
 H         3.573425        -0.869159        -1.410790
 H         0.927577         0.581334         0.531482
