19
Iteration:  1826charge 0 multiplicity 1
 C         2.731547        -1.561957        -4.021903
 C         2.381335        -0.467863        -3.101346
 C         2.328158         0.899730        -3.805124
 C         1.107424         0.382306        -3.026877
 O         0.822271         0.676210        -1.688019
 C         2.200409         0.752555        -1.052794
 C         3.009949        -0.490730        -1.655420
 C         2.067851         0.679491         0.437001
 O         3.012076         0.460628         1.273124
 H         3.902200        -1.543540        -4.211528
 H         2.368458        -2.570356        -3.728830
 H         2.162197        -1.241908        -4.975943
 H         2.949279         1.776231        -3.423371
 H         2.230220         0.748028        -4.883888
 H         0.203060         0.152493        -3.667847
 H         2.629050         1.701317        -1.383507
 H         4.104673        -0.249030        -1.607167
 H         2.764740        -1.380221        -1.045075
 H         1.039098         0.827002         0.947304
