19
Iteration:  2003
 C         2.429282        -1.734159        -3.841658
 C         2.484413        -0.462402        -3.117501
 C         2.129732         0.812675        -3.884831
 C         1.080088         0.231105        -2.950914
 O         1.134102         0.989039        -1.725473
 C         2.401333         0.809312        -1.023451
 C         3.317171        -0.004418        -1.929085
 C         2.142679         0.227416         0.365323
 O         2.579437         0.444932         1.436577
 H         3.488992        -1.906922        -4.231994
 H         1.977257        -2.466418        -3.200809
 H         1.838747        -1.739149        -4.836693
 H         2.535034         1.798939        -3.499000
 H         2.021556         0.943451        -4.932578
 H         0.141903        -0.279150        -3.164639
 H         2.965113         1.802471        -1.058100
 H         4.200050         0.547273        -2.239344
 H         3.764356        -0.834695        -1.304250
 H         1.454551        -0.620614         0.342305
