19
Iteration:   689
 C         2.461772        -1.714998        -3.902049
 C         2.471864        -0.393870        -3.151415
 C         2.491893         0.930464        -3.803035
 C         1.175400         0.382578        -3.032453
 O         0.971576         0.798411        -1.690127
 C         2.159577         0.800900        -1.051154
 C         3.089465        -0.287040        -1.706230
 C         1.973069         0.470587         0.415251
 O         2.902662         0.411435         1.215942
 H         1.708580        -2.351586        -3.504960
 H         2.244353        -1.703707        -4.925138
 H         3.430344        -2.227914        -3.645553
 H         3.073183         1.648648        -3.297369
 H         2.393003         1.075211        -4.879402
 H         0.251817         0.101122        -3.611007
 H         2.724677         1.732985        -1.019843
 H         4.173786        -0.115106        -1.636380
 H         2.925248        -1.292085        -1.170311
 H         0.838069         0.252084         0.706310
