19
Iteration:  2441charge 0 multiplicity 1
 C         2.623808        -1.660295        -3.974674
 C         2.485198        -0.446135        -3.081005
 C         2.131354         0.925208        -3.782112
 C         1.162965         0.175415        -2.985396
 O         0.985182         0.745268        -1.744726
 C         2.325407         0.817504        -1.078345
 C         3.063103        -0.284880        -1.629253
 C         2.161095         0.918970         0.464020
 O         2.764270         0.157311         1.145259
 H         3.735842        -1.727672        -4.280554
 H         2.136953        -2.457303        -3.473374
 H         2.116661        -1.582578        -4.930005
 H         2.472776         1.827242        -3.290021
 H         2.124049         1.110224        -4.813659
 H         0.209273        -0.308560        -3.107530
 H         2.834905         1.802856        -1.209977
 H         4.113850        -0.077174        -1.506450
 H         3.071156        -1.284814        -1.034805
 H         1.380591         1.630366         0.693313
