19
Iteration:  3341
 C         2.784219        -1.760746        -3.557840
 C         2.349288        -0.420830        -3.052561
 C         2.058616         0.751181        -4.076363
 C         1.097551         0.374218        -2.935491
 O         1.051187         0.923289        -1.611736
 C         2.326599         1.052182        -1.022501
 C         3.207701         0.167851        -1.911113
 C         2.087627         0.523487         0.428002
 O         2.715313        -0.174389         1.106096
 H         3.910130        -1.907366        -3.716187
 H         2.360163        -2.384421        -2.760027
 H         2.264507        -2.021048        -4.596759
 H         2.658513         1.645466        -4.061795
 H         1.713583         0.368511        -5.127563
 H         0.157089        -0.078192        -3.221105
 H         2.641924         2.118862        -1.015942
 H         4.059693         0.704302        -2.322530
 H         3.576771        -0.741086        -1.475293
 H         1.075552         0.788567         0.582892
