19
Iteration:  4780charge 0 multiplicity 1
 C         2.495779        -1.722132        -3.884735
 C         2.384799        -0.409193        -3.124190
 C         2.196842         0.792343        -4.000329
 C         1.182790         0.420922        -2.921698
 O         1.194211         1.066387        -1.667024
 C         2.425844         0.655801        -0.931349
 C         3.192442        -0.295893        -1.928690
 C         1.914667         0.243628         0.432188
 O         2.679493         0.577668         1.366000
 H         3.446337        -1.835201        -4.418605
 H         2.265444        -2.609016        -3.298921
 H         1.757084        -1.608953        -4.723658
 H         2.752737         1.665012        -3.710972
 H         2.062555         0.652627        -5.094874
 H         0.220470        -0.021677        -3.339016
 H         3.031191         1.525634        -0.802621
 H         4.096699         0.182118        -2.162317
 H         3.376103        -1.220167        -1.367705
 H         1.118950        -0.507575         0.708303
