19
Iteration:  3753
 C         2.498379        -1.656609        -3.964730
 C         2.472743        -0.304611        -3.231260
 C         2.206302         1.031840        -3.887312
 C         1.186331         0.384513        -2.995856
 O         1.095038         0.676192        -1.624755
 C         2.418394         0.631206        -1.024423
 C         3.107449        -0.411214        -1.899388
 C         2.086082         0.297183         0.470276
 O         2.673446         0.751883         1.435892
 H         3.470340        -2.119576        -4.207801
 H         2.213490        -2.295763        -3.072203
 H         1.729543        -1.759676        -4.770940
 H         2.572047         1.946890        -3.514673
 H         2.013781         0.983088        -5.055918
 H         0.291346         0.017309        -3.448544
 H         2.898103         1.659784        -1.088854
 H         4.179182        -0.364933        -2.036514
 H         2.920248        -1.408576        -1.415871
 H         1.334795        -0.425336         0.692639
