19
Iteration:  4592charge 0 multiplicity 1
 C         2.610607        -1.711122        -3.994038
 C         2.380160        -0.468341        -3.140693
 C         2.364839         0.864877        -3.860025
 C         1.172274         0.390097        -2.998484
 O         0.971186         0.946580        -1.765792
 C         2.156455         0.800075        -1.049973
 C         2.922071        -0.386396        -1.742529
 C         2.043857         0.507159         0.590673
 O         3.009597         0.407606         1.330113
 H         3.699050        -1.735886        -4.172596
 H         2.386783        -2.595685        -3.490603
 H         2.225158        -1.760394        -5.004195
 H         2.886981         1.746266        -3.648204
 H         2.255952         0.615516        -4.955873
 H         0.227016         0.215019        -3.538167
 H         2.741347         1.728252        -1.092525
 H         3.973345        -0.135857        -1.770494
 H         2.779389        -1.315282        -1.215560
 H         0.955653         0.357659         0.864179
