19
Iteration:  3700charge 0 multiplicity 1
 C         2.526747        -1.551471        -4.128176
 C         2.408629        -0.465434        -3.091964
 C         2.288283         0.882358        -3.730181
 C         1.138795         0.315869        -3.000630
 O         0.954319         0.819895        -1.623813
 C         2.300335         0.616413        -1.007583
 C         3.102822        -0.447433        -1.709065
 C         2.163204         0.257542         0.436719
 O         2.768879         0.840709         1.225016
 H         3.499818        -1.227854        -4.408274
 H         2.593779        -2.641055        -3.987751
 H         1.860938        -1.354374        -5.038264
 H         2.972544         1.580062        -3.290035
 H         2.463515         1.010430        -4.884207
 H         0.254550         0.104651        -3.572667
 H         2.796927         1.626025        -0.991463
 H         4.137361        -0.245523        -1.575463
 H         2.876142        -1.414255        -1.208215
 H         1.444593        -0.552935         0.773602
