19
Iteration:  1992
 C         2.467559        -1.743142        -3.843835
 C         2.384866        -0.385512        -3.139876
 C         2.131468         0.868840        -3.951620
 C         1.173729         0.226868        -2.913725
 O         1.089664         0.933159        -1.641862
 C         2.438097         0.936437        -1.072457
 C         3.299869        -0.116574        -1.866409
 C         2.129077         0.217703         0.294017
 O         2.602006         0.441366         1.443293
 H         3.538749        -2.074282        -4.058265
 H         2.219309        -2.575718        -3.212924
 H         1.803763        -1.674266        -4.792475
 H         2.746340         1.747277        -3.661715
 H         1.878075         0.612256        -4.953881
 H         0.220615        -0.192250        -3.182010
 H         2.733923         2.036208        -0.927938
 H         4.206110         0.425737        -2.117803
 H         3.522802        -1.076341        -1.307973
 H         1.388780        -0.530442        -0.011821
