19
Iteration:   623
 C         2.675355        -1.754367        -3.789834
 C         2.419889        -0.434458        -3.119367
 C         2.373033         0.870104        -3.903020
 C         1.164935         0.451195        -3.055630
 O         1.020461         1.091756        -1.768227
 C         2.123830         0.793118        -0.992751
 C         2.972841        -0.317328        -1.676278
 C         1.938871         0.350598         0.474402
 O         2.950268         0.319874         1.153031
 H         2.636658        -2.574377        -3.129976
 H         2.050391        -1.828113        -4.618537
 H         3.792479        -1.831124        -4.090347
 H         2.872960         1.772314        -3.579270
 H         2.135711         0.797550        -4.968037
 H         0.116009         0.148956        -3.420040
 H         2.696419         1.733864        -0.923711
 H         4.038184        -0.251863        -1.560793
 H         2.722773        -1.300765        -1.267072
 H         1.008334        -0.011960         0.803309
