19
Iteration:  2674
 C         2.544358        -1.767128        -3.876407
 C         2.386831        -0.367471        -3.109201
 C         2.065073         0.825948        -3.961955
 C         1.129356         0.358868        -2.937198
 O         1.166649         1.005116        -1.661255
 C         2.386059         0.725497        -0.980569
 C         3.299977        -0.183725        -1.870510
 C         2.004647         0.323247         0.382272
 O         2.663659         0.450106         1.374951
 H         3.460839        -1.617597        -4.611664
 H         2.751296        -2.707538        -3.278218
 H         1.753211        -2.055388        -4.615980
 H         2.757855         1.673801        -3.859234
 H         1.796543         0.628297        -4.945039
 H         0.149127         0.012641        -3.228207
 H         3.013171         1.662073        -0.854231
 H         4.310963         0.340048        -2.041656
 H         3.565060        -1.223273        -1.512428
 H         0.982620        -0.230698         0.440223
