19
Iteration:  2160charge 0 multiplicity 1
 C         2.612561        -1.837829        -3.631593
 C         2.425079        -0.445633        -3.215852
 C         1.937467         0.920676        -4.082534
 C         1.162307         0.358662        -2.931132
 O         1.126047         1.133321        -1.739045
 C         2.439553         0.855867        -1.025402
 C         3.315241        -0.060614        -1.988643
 C         2.129875         0.120473         0.441981
 O         2.554183         0.329180         1.488680
 H         3.427463        -2.174460        -4.179904
 H         2.526632        -2.474273        -2.669112
 H         1.881550        -2.154614        -4.315550
 H         2.634576         1.795293        -4.099355
 H         1.669600         0.657533        -5.170077
 H         0.181720         0.024058        -3.249610
 H         2.950341         1.812072        -0.896635
 H         4.278450         0.477050        -2.176591
 H         3.584946        -0.979518        -1.455154
 H         1.335526        -0.573007         0.083683
