19
Iteration:  4641charge 0 multiplicity 1
 C         2.553789        -1.712798        -3.928060
 C         2.497365        -0.423929        -3.183741
 C         2.194152         0.890962        -3.875205
 C         1.157447         0.347755        -2.971200
 O         1.102758         0.936688        -1.611472
 C         2.408008         0.790259        -1.046855
 C         3.050270        -0.397190        -1.739237
 C         1.984155         0.483091         0.340810
 O         2.780112         0.459878         1.345621
 H         3.386334        -1.998124        -4.577245
 H         2.357557        -2.659668        -3.306897
 H         1.724462        -1.625805        -4.640964
 H         2.850732         1.743990        -3.511490
 H         2.062771         1.014144        -4.973802
 H         0.160089        -0.073068        -3.276767
 H         2.990060         1.762977        -1.071675
 H         4.147586        -0.176794        -1.687870
 H         2.744601        -1.405761        -1.397235
 H         0.937987         0.081851         0.207697
