19
Iteration:  3568charge 0 multiplicity 1
 C         2.668255        -1.626644        -3.832031
 C         2.463203        -0.343322        -3.152298
 C         2.237862         0.930411        -3.965343
 C         1.203030         0.312148        -2.985945
 O         0.902680         0.799697        -1.634217
 C         2.182468         0.797463        -1.050571
 C         2.991189        -0.269245        -1.760285
 C         2.047497         0.438417         0.481287
 O         2.967460         0.381468         1.214928
 H         3.633556        -1.806554        -4.278133
 H         2.632518        -2.429076        -3.036000
 H         1.880231        -1.894827        -4.581975
 H         2.713765         1.945540        -3.662812
 H         2.172614         0.674899        -4.996252
 H         0.325455         0.014360        -3.583259
 H         2.765608         1.714393        -1.157787
 H         4.053051         0.051102        -1.659647
 H         2.895513        -1.223860        -1.195679
 H         1.107768        -0.074113         0.702881
