19
Iteration:  4283charge 0 multiplicity 1
 C         2.537663        -1.735834        -4.000794
 C         2.387794        -0.435390        -3.148475
 C         2.102596         0.837347        -3.929765
 C         1.133630         0.419603        -2.902512
 O         1.247971         1.058997        -1.626153
 C         2.416149         0.636991        -0.951123
 C         3.171840        -0.329266        -1.830165
 C         2.023408         0.181639         0.354016
 O         2.639863         0.669626         1.365889
 H         3.477952        -1.656869        -4.625938
 H         2.487664        -2.684497        -3.444051
 H         1.675473        -1.793759        -4.664826
 H         2.717160         1.649812        -3.595867
 H         1.922593         0.845432        -5.093471
 H         0.038811         0.059949        -3.064893
 H         3.201502         1.478492        -0.927199
 H         4.283676        -0.030630        -1.926019
 H         3.287786        -1.309640        -1.420348
 H         1.049958        -0.362504         0.501196
