19
Iteration:   845charge 0 multiplicity 1
 C         2.417850        -1.746480        -3.833741
 C         2.435529        -0.370535        -3.156728
 C         2.463535         1.028891        -3.798705
 C         1.296638         0.524402        -3.093585
 O         0.956386         0.678080        -1.663188
 C         2.217376         0.747999        -1.035207
 C         3.029736        -0.378807        -1.749596
 C         2.081942         0.293829         0.393351
 O         2.810499         0.614507         1.275483
 H         1.631010        -2.360608        -3.458704
 H         2.114036        -1.521119        -4.837361
 H         3.454712        -2.218131        -4.054970
 H         3.265543         1.675422        -3.399411
 H         2.327497         1.308489        -4.921969
 H         0.302474         0.279567        -3.596404
 H         2.775099         1.701336        -1.112917
 H         4.167760        -0.086066        -1.744954
 H         2.825540        -1.403963        -1.199642
 H         1.178680        -0.504309         0.483839
