19
Iteration:  3019
 C         2.704256        -1.761426        -3.796061
 C         2.453255        -0.356482        -3.151289
 C         2.058364         0.914134        -3.968304
 C         1.085839         0.398138        -3.003994
 O         1.008679         0.800680        -1.677930
 C         2.312847         0.843301        -0.991053
 C         3.187728        -0.112347        -1.774058
 C         1.994515         0.474808         0.425446
 O         2.873337         0.217117         1.255044
 H         3.642297        -1.859401        -4.343665
 H         2.667682        -2.528084        -2.925029
 H         1.891963        -1.945809        -4.555346
 H         2.556262         1.934700        -3.702186
 H         1.963582         0.724184        -5.025348
 H         0.120429         0.001843        -3.282335
 H         2.788419         1.869341        -0.886110
 H         4.214416         0.180113        -1.956806
 H         3.253166        -1.205454        -1.424133
 H         0.854043         0.476354         0.639416
