19
Iteration:  1592
 C         2.378543        -1.646783        -3.826939
 C         2.553182        -0.330983        -3.145581
 C         1.958317         0.822578        -3.998856
 C         1.188296         0.161895        -2.851206
 O         1.224169         0.984428        -1.662860
 C         2.451623         0.812732        -0.993534
 C         3.496943        -0.049479        -1.941974
 C         2.122309         0.075446         0.299520
 O         2.425280         0.532095         1.384761
 H         3.267789        -2.061600        -4.337673
 H         2.088443        -2.467974        -3.023613
 H         1.459238        -1.625418        -4.412233
 H         2.453828         1.744226        -3.510410
 H         1.684441         0.642863        -4.967812
 H         0.147398        -0.299370        -2.820384
 H         2.912350         1.747890        -0.757834
 H         4.410026         0.512518        -2.140830
 H         3.530165        -1.051325        -1.427096
 H         1.490837        -0.800390         0.012442
