19
Iteration:   110charge 0 multiplicity 1
 C         2.532584        -1.671236        -4.037789
 C         2.421174        -0.409622        -3.126138
 C         2.306673         1.047621        -3.719666
 C         1.148839         0.348753        -3.045461
 O         0.987388         0.656258        -1.651859
 C         2.324924         0.721928        -1.077959
 C         3.165610        -0.484790        -1.723794
 C         2.020919         0.502806         0.352312
 O         2.780967         0.625917         1.367179
 H         2.307262        -2.619598        -3.417332
 H         1.956760        -1.616806        -4.887185
 H         3.542584        -1.870410        -4.323670
 H         2.603187         2.038524        -3.454339
 H         2.426103         0.928368        -4.797097
 H         0.221282         0.284773        -3.612630
 H         2.918628         1.700257        -1.209421
 H         4.122903        -0.091093        -1.927319
 H         3.125449        -1.323755        -1.109891
 H         1.055642         0.128024         0.503706
