19
Iteration:  2845charge 0 multiplicity 1
 C         2.599569        -1.561296        -4.188240
 C         2.437604        -0.457966        -3.099383
 C         2.284562         0.840394        -3.676766
 C         1.120038         0.279205        -2.943931
 O         0.979297         0.873787        -1.658333
 C         2.262781         0.722502        -1.044385
 C         3.068327        -0.459263        -1.740737
 C         2.114037         0.317620         0.444566
 O         2.814121         0.760301         1.296812
 H         3.560293        -1.380651        -4.722072
 H         2.448657        -2.609914        -3.850940
 H         1.718460        -1.468754        -4.824172
 H         2.697586         1.680195        -3.095474
 H         2.435106         0.955430        -4.800883
 H         0.222081        -0.251280        -3.394640
 H         2.813161         1.640506        -1.234916
 H         4.131998        -0.306465        -1.871228
 H         2.838004        -1.373204        -1.242942
 H         1.419424        -0.453846         0.477269
