19
Iteration:  2799
 C         2.553806        -1.680712        -3.936341
 C         2.419277        -0.364407        -3.315816
 C         2.187470         1.043225        -3.995120
 C         1.157873         0.331584        -2.985862
 O         1.054411         0.759672        -1.569020
 C         2.441775         0.608523        -0.973599
 C         3.154560        -0.444913        -1.997343
 C         2.152111         0.305942         0.508187
 O         2.635256         0.776772         1.523216
 H         3.589390        -1.811100        -4.098882
 H         2.085398        -2.541995        -3.324290
 H         1.948639        -1.790167        -4.866863
 H         2.711817         2.044116        -3.732291
 H         1.795776         1.045426        -4.978432
 H         0.198354         0.085479        -3.374178
 H         3.044479         1.490989        -0.997124
 H         4.148598        -0.200266        -1.867364
 H         2.963691        -1.404096        -1.532190
 H         1.301179        -0.343079         0.526825
