19
Iteration:  2986charge 0 multiplicity 1
 C         2.718287        -1.670073        -3.845119
 C         2.443654        -0.330597        -3.180034
 C         2.093985         0.921520        -3.922629
 C         1.135665         0.304847        -2.977467
 O         0.977251         0.858801        -1.769688
 C         2.234025         0.723103        -0.972711
 C         3.048893        -0.220024        -1.821600
 C         2.042010         0.455389         0.449321
 O         2.960226         0.333876         1.338715
 H         3.772316        -1.901214        -3.806672
 H         2.172115        -2.589494        -3.347205
 H         2.357450        -1.588875        -4.896862
 H         2.525971         1.857946        -3.482235
 H         2.154910         0.779550        -5.038675
 H         0.211390        -0.212880        -3.251106
 H         2.727164         1.756792        -0.962373
 H         4.059201         0.138821        -1.908819
 H         2.985282        -1.293525        -1.341543
 H         1.062775         0.498147         0.832507
