19
Iteration:  1557
 C         2.523092        -1.814042        -3.767100
 C         2.386701        -0.410618        -3.240432
 C         1.994176         0.815686        -4.077056
 C         1.146916         0.404304        -2.880150
 O         1.195381         0.987752        -1.569650
 C         2.459542         0.838280        -1.003647
 C         3.368003         0.009732        -2.064856
 C         2.268608         0.038451         0.368410
 O         2.366628         0.497332         1.519256
 H         3.514498        -2.055016        -4.092993
 H         2.194234        -2.511283        -2.909163
 H         1.900290        -1.942487        -4.737681
 H         2.720060         1.577478        -4.059922
 H         1.554239         0.853479        -5.055193
 H         0.183477         0.219490        -3.294406
 H         2.911390         1.838806        -0.754956
 H         4.332847         0.375602        -2.318853
 H         3.698769        -0.950364        -1.611005
 H         1.848604        -0.998859         0.292108
