19
Iteration:  3646charge 0 multiplicity 1
 C         2.678105        -1.639715        -4.043027
 C         2.407506        -0.350954        -3.298659
 C         2.285611         1.050669        -3.805710
 C         1.122203         0.348288        -2.996528
 O         0.987131         0.594498        -1.619822
 C         2.246660         0.674304        -0.976156
 C         2.967802        -0.604351        -1.852611
 C         2.097012         0.535421         0.521971
 O         2.895664         0.738921         1.410204
 H         3.714336        -1.826369        -4.180368
 H         2.105683        -2.493843        -3.679525
 H         2.393793        -1.593076        -5.151095
 H         2.867321         1.976714        -3.565529
 H         1.908505         1.054269        -4.900630
 H         0.179632         0.210203        -3.539957
 H         2.786911         1.617751        -1.088652
 H         3.982995        -0.226976        -1.894620
 H         2.773788        -1.573665        -1.379069
 H         1.130442         0.097931         0.813422
