19
Iteration:   298charge 0 multiplicity 1
 C         2.438136        -1.659881        -4.048690
 C         2.336864        -0.448425        -3.121936
 C         2.251748         0.904529        -3.841034
 C         1.208568         0.386333        -2.839038
 O         1.210243         0.895132        -1.515346
 C         2.619764         0.711757        -1.078695
 C         3.175435        -0.489917        -1.936860
 C         2.279736         0.191285         0.329667
 O         2.207999         0.847493         1.383949
 H         2.539298        -2.646077        -3.453885
 H         1.730549        -1.569147        -4.829124
 H         3.346710        -1.680134        -4.538826
 H         2.867869         1.742935        -3.578535
 H         2.105290         0.915395        -4.956669
 H         0.233984         0.066951        -3.079967
 H         3.202995         1.675695        -1.050135
 H         4.269429        -0.403621        -2.115242
 H         2.909119        -1.413924        -1.438990
 H         1.990369        -0.959901         0.256908
