19
Iteration:  1221charge 0 multiplicity 1
 C         2.580209        -1.652438        -3.985589
 C         2.428410        -0.352144        -3.171440
 C         2.313121         0.983873        -3.806771
 C         1.196984         0.413534        -3.023256
 O         0.903051         0.756968        -1.610451
 C         2.232539         0.710429        -1.056809
 C         2.987323        -0.500241        -1.758477
 C         2.189184         0.297241         0.390732
 O         2.892235         0.730768         1.321795
 H         3.603829        -1.797495        -4.400723
 H         2.342427        -2.562920        -3.349942
 H         1.810154        -1.723203        -4.766554
 H         2.979309         1.861092        -3.471334
 H         2.234999         0.971530        -4.837749
 H         0.252221        -0.030589        -3.414818
 H         2.727307         1.697799        -1.231807
 H         4.061773        -0.454352        -1.605727
 H         2.449641        -1.357321        -1.327639
 H         1.306676        -0.459752         0.628818
