19
Iteration:  3634charge 0 multiplicity 1
 C         2.659048        -1.626404        -4.091745
 C         2.424829        -0.442816        -3.177636
 C         2.240114         0.980198        -3.802132
 C         1.143616         0.402054        -3.031235
 O         0.913960         0.630953        -1.575798
 C         2.274536         0.610674        -1.020367
 C         3.048019        -0.440306        -1.826746
 C         2.018873         0.514279         0.502850
 O         2.932162         0.707367         1.363198
 H         3.687971        -1.852848        -3.957589
 H         2.204468        -2.557441        -3.688273
 H         2.315245        -1.340128        -5.106310
 H         2.964803         1.801069        -3.410678
 H         2.110424         0.979831        -4.907105
 H         0.132109         0.423054        -3.511682
 H         2.811431         1.513154        -1.348741
 H         4.143636        -0.370636        -1.846304
 H         3.043416        -1.497764        -1.523750
 H         0.962750         0.257292         0.737525
