19
Iteration:  3672
 C         2.621235        -1.620985        -4.057004
 C         2.538642        -0.360777        -3.218730
 C         2.190073         1.014270        -3.746228
 C         1.131332         0.275433        -3.071731
 O         0.971944         0.720873        -1.602952
 C         2.331862         0.638513        -0.982861
 C         2.955988        -0.560895        -1.781613
 C         2.081994         0.358166         0.445935
 O         2.874400         0.839073         1.347781
 H         3.671319        -1.725214        -4.498379
 H         2.229865        -2.591875        -3.749742
 H         2.095225        -1.344390        -4.994517
 H         2.665312         1.884565        -3.308475
 H         2.200832         1.116142        -4.826495
 H         0.210707         0.172811        -3.663376
 H         2.948686         1.552426        -1.023278
 H         4.078879        -0.448730        -1.628290
 H         2.544811        -1.530486        -1.410606
 H         1.225549        -0.221461         0.801587
