19
Iteration:  2805charge 0 multiplicity 1
 C         2.546900        -1.672668        -3.977637
 C         2.473865        -0.360024        -3.267228
 C         2.151384         1.009802        -3.992157
 C         1.153223         0.415100        -2.944453
 O         1.049107         0.742793        -1.610736
 C         2.433489         0.559757        -0.975515
 C         3.124019        -0.444493        -1.933190
 C         2.146247         0.362718         0.510690
 O         2.651372         0.765245         1.492904
 H         3.618337        -1.991407        -4.279898
 H         2.367644        -2.449144        -3.263936
 H         2.050282        -1.706007        -4.941494
 H         2.525655         1.937101        -3.710242
 H         1.890805         0.896023        -5.088257
 H         0.136812         0.225878        -3.359264
 H         3.006449         1.549946        -0.917611
 H         4.289549        -0.303072        -1.974327
 H         2.877773        -1.505000        -1.627753
 H         1.302177        -0.473574         0.674234
