19
Iteration:  2709charge 0 multiplicity 1
 C         2.528206        -1.787216        -3.823657
 C         2.397393        -0.424348        -3.282061
 C         2.057465         0.973733        -4.001661
 C         1.154323         0.398990        -2.949972
 O         1.144212         0.938527        -1.659154
 C         2.446965         0.710376        -1.004123
 C         3.266636        -0.226979        -1.932048
 C         2.118290         0.244295         0.465660
 O         2.590022         0.559925         1.491027
 H         3.558783        -1.776757        -4.283257
 H         2.506906        -2.607891        -2.956667
 H         1.693754        -2.055493        -4.590431
 H         2.720826         1.775242        -3.850221
 H         1.766836         0.828722        -5.095132
 H         0.172207        -0.012904        -3.303904
 H         2.868846         1.732414        -1.013051
 H         4.305178         0.221752        -1.855543
 H         3.291193        -1.322770        -1.705705
 H         1.358308        -0.671763         0.348503
