19
Iteration:  3742
 C         2.567263        -1.713221        -3.982888
 C         2.414570        -0.402676        -3.262605
 C         2.257984         1.054979        -3.905025
 C         1.151895         0.372825        -3.040692
 O         0.976467         0.693728        -1.619271
 C         2.406918         0.680007        -0.978551
 C         3.130456        -0.422683        -1.851063
 C         2.181606         0.286559         0.492356
 O         2.688364         0.783818         1.467200
 H         3.414900        -1.923496        -4.669387
 H         2.187737        -2.624771        -3.451496
 H         1.743022        -1.602072        -4.741887
 H         2.888725         1.763848        -3.419495
 H         1.952940         1.443498        -4.963743
 H         0.176391         0.150442        -3.449762
 H         2.958967         1.673928        -0.975644
 H         4.206790        -0.321009        -1.927827
 H         2.848066        -1.430127        -1.439536
 H         1.281832        -0.293875         0.485725
