19
Iteration:  1057charge 0 multiplicity 1
 C         2.596715        -1.779817        -3.789274
 C         2.431608        -0.407914        -3.187938
 C         2.233945         0.906440        -3.897640
 C         1.106426         0.417715        -3.012415
 O         0.994565         0.918742        -1.669967
 C         2.255107         0.886929        -1.044733
 C         3.108582        -0.215856        -1.741595
 C         2.055832         0.461121         0.423688
 O         2.891468         0.246484         1.232661
 H         3.231720        -1.735775        -4.785160
 H         3.051230        -2.578634        -3.135639
 H         1.608471        -2.199430        -4.022392
 H         2.841747         1.690604        -3.604510
 H         2.281096         0.956560        -4.991400
 H         0.111380         0.009777        -3.472452
 H         2.841082         1.803742        -1.050186
 H         4.153595         0.096762        -1.681026
 H         2.929412        -1.257847        -1.204953
 H         0.941096         0.088898         0.602978
