19
Iteration:   667charge 0 multiplicity 1
 C         2.547044        -1.824745        -3.732482
 C         2.483992        -0.421593        -3.078292
 C         2.473618         0.988313        -3.770404
 C         1.218122         0.483728        -3.077129
 O         0.848129         0.863366        -1.774927
 C         2.135715         0.918723        -1.059781
 C         2.925768        -0.279046        -1.693547
 C         2.030344         0.395538         0.374741
 O         3.019097         0.308873         1.165954
 H         1.956869        -2.609611        -3.370242
 H         2.256115        -1.654888        -4.709148
 H         3.607281        -2.218186        -3.668654
 H         2.986988         1.814513        -3.375321
 H         2.316403         0.987817        -4.863941
 H         0.409761         0.240613        -3.846627
 H         2.670907         1.862622        -1.084503
 H         3.994802        -0.140040        -1.526814
 H         2.720318        -1.286639        -1.208748
 H         1.055458        -0.141097         0.495895
