19
Iteration:  4863
 C         2.439934        -1.773925        -3.809138
 C         2.355956        -0.422390        -3.212898
 C         2.294297         0.891347        -3.956738
 C         1.148134         0.429292        -2.966760
 O         1.133169         0.975907        -1.664793
 C         2.350345         0.788103        -1.000794
 C         3.137466        -0.292136        -1.864798
 C         2.149051         0.219134         0.392589
 O         2.650197         0.553009         1.385720
 H         3.518260        -1.975753        -4.076006
 H         2.138208        -2.596955        -3.163166
 H         1.953096        -2.092744        -4.759416
 H         2.868304         1.698350        -3.508276
 H         2.130495         1.067542        -4.989417
 H         0.199983         0.183868        -3.352898
 H         2.915431         1.788225        -0.761293
 H         4.200632         0.084293        -2.067480
 H         3.314446        -1.309686        -1.450330
 H         1.345305        -0.631171         0.281249
