19
Iteration:  4453charge 0 multiplicity 1
 C         2.589425        -1.784093        -3.934969
 C         2.426774        -0.386552        -3.122774
 C         2.156956         0.962431        -3.834163
 C         1.147578         0.376621        -2.960512
 O         1.150820         1.001256        -1.648361
 C         2.357797         0.717754        -1.076414
 C         3.067285        -0.437489        -1.769134
 C         1.957253         0.427910         0.343947
 O         2.822585         0.496610         1.303691
 H         3.572151        -1.710829        -4.418170
 H         2.609196        -2.623593        -3.164285
 H         1.882214        -2.070953        -4.828873
 H         2.672429         1.821133        -3.488188
 H         2.108223         1.122490        -4.899950
 H         0.187373        -0.215034        -3.198203
 H         2.886004         1.667954        -1.124027
 H         4.122587        -0.404325        -1.756616
 H         2.662680        -1.463369        -1.430410
 H         0.915696         0.142602         0.734105
