19
Iteration:  1849
 C         2.677552        -1.723506        -4.010873
 C         2.453768        -0.362969        -3.293594
 C         2.293732         1.047760        -3.763951
 C         1.164904         0.323519        -3.052205
 O         0.930714         0.685663        -1.664013
 C         2.086153         0.582308        -0.926213
 C         3.049812        -0.428345        -1.789159
 C         2.031702         0.692261         0.533090
 O         2.977110         0.524486         1.267322
 H         3.829129        -1.939328        -4.200058
 H         2.261627        -2.460573        -3.336881
 H         2.027882        -1.826550        -5.013519
 H         2.929833         1.634790        -3.142189
 H         2.048996         1.222943        -4.888083
 H         0.277540         0.077930        -3.631606
 H         2.673854         1.530026        -1.031143
 H         4.110756        -0.165314        -1.603897
 H         2.826060        -1.449001        -1.424004
 H         1.023799         1.176195         0.913435
