19
Iteration:  1130charge 0 multiplicity 1
 C         2.606436        -1.681217        -3.889907
 C         2.452348        -0.336699        -3.209435
 C         2.129858         0.971537        -3.933077
 C         1.121980         0.286149        -2.941502
 O         1.066986         0.830413        -1.637479
 C         2.361674         0.712378        -1.045153
 C         3.096446        -0.363043        -1.795915
 C         2.084726         0.521268         0.434301
 O         2.800517         0.453613         1.366811
 H         3.511854        -2.179320        -3.706769
 H         1.823384        -2.402859        -3.616241
 H         2.402253        -1.612810        -5.009158
 H         2.582131         1.904941        -3.688165
 H         1.961362         1.079861        -5.034862
 H         0.166078        -0.159244        -3.315656
 H         3.015441         1.624018        -1.252375
 H         4.163989        -0.181792        -1.857803
 H         2.860970        -1.300853        -1.485347
 H         1.019940         0.102610         0.534925
