19
Iteration:   829charge 0 multiplicity 1
 C         2.431702        -1.683087        -3.923783
 C         2.450656        -0.358215        -3.168929
 C         2.556124         0.970464        -3.814276
 C         1.244055         0.469488        -3.052945
 O         0.900619         0.764301        -1.741982
 C         2.191175         0.720542        -1.028729
 C         2.979192        -0.382592        -1.765334
 C         2.156534         0.268032         0.450419
 O         2.826704         0.636732         1.339089
 H         2.097967        -2.516565        -3.220463
 H         1.723456        -1.920567        -4.774339
 H         3.457774        -1.880901        -4.080346
 H         3.183509         1.706015        -3.351790
 H         2.324874         1.003344        -4.813360
 H         0.369006         0.479791        -3.633267
 H         2.544358         1.742760        -1.114196
 H         3.999854        -0.337288        -1.567028
 H         2.673424        -1.304181        -1.344113
 H         1.499761        -0.695131         0.647438
