19
Iteration:   814
 C         2.534898        -1.730650        -3.968440
 C         2.446072        -0.453531        -3.193211
 C         2.480256         0.997953        -3.806404
 C         1.189027         0.502648        -3.126372
 O         0.915204         0.885510        -1.695675
 C         2.177296         0.719231        -0.981321
 C         2.938493        -0.445738        -1.717266
 C         2.123732         0.191477         0.482547
 O         2.847228         0.697177         1.349972
 H         2.493197        -2.577961        -3.223829
 H         1.676260        -1.516155        -4.654332
 H         3.350273        -2.005338        -4.688045
 H         3.133070         1.795636        -3.388033
 H         2.654966         0.949901        -4.961108
 H         0.314862         0.111291        -3.750387
 H         2.879358         1.610530        -0.924396
 H         4.053400        -0.286683        -1.783541
 H         2.766024        -1.453321        -1.287074
 H         1.421203        -0.573900         0.583588
