19
Iteration:  3403
 C         2.699143        -1.714430        -3.638886
 C         2.470558        -0.337230        -2.976940
 C         2.064442         0.765692        -3.984203
 C         1.121782         0.251029        -2.940961
 O         0.922826         1.058030        -1.767920
 C         2.244380         1.010019        -1.029596
 C         3.295842         0.001532        -1.718262
 C         2.000962         0.485368         0.362816
 O         2.890359        -0.093116         1.023742
 H         3.609527        -1.873194        -4.136545
 H         2.770641        -2.519034        -2.877058
 H         1.786224        -1.920174        -4.112009
 H         2.467455         1.770062        -3.883502
 H         1.812379         0.441297        -5.038499
 H         0.222909        -0.298008        -3.147780
 H         2.612255         2.061074        -1.027872
 H         4.275342         0.476389        -1.819187
 H         3.370604        -0.909939        -1.056970
 H         0.922236         0.521697         0.766436
