19
Iteration:  2332charge 0 multiplicity 1
 C         2.590078        -1.702907        -3.767325
 C         2.520605        -0.437212        -3.054356
 C         2.169148         0.766634        -3.967194
 C         1.102469         0.333556        -2.941139
 O         1.070445         0.997040        -1.751682
 C         2.255537         0.968006        -0.990096
 C         3.160852        -0.053535        -1.684668
 C         1.916358         0.371176         0.411322
 O         2.870897         0.217996         1.099492
 H         3.679373        -1.938267        -4.212045
 H         2.365687        -2.675678        -3.182803
 H         1.801936        -1.771238        -4.503376
 H         2.840312         1.613210        -3.867350
 H         1.855638         0.443069        -4.880875
 H         0.222558        -0.162468        -3.284264
 H         2.854179         1.874617        -0.854299
 H         4.188109         0.314914        -1.751976
 H         3.242987        -1.163869        -1.157388
 H         0.933987        -0.177403         0.704645
