19
Iteration:  4765charge 0 multiplicity 1
 C         2.467894        -1.784474        -3.904770
 C         2.391346        -0.440691        -3.204147
 C         2.218426         0.867586        -3.992642
 C         1.121591         0.447504        -2.982947
 O         1.155901         1.001314        -1.643652
 C         2.396790         0.780929        -1.015888
 C         3.234785        -0.253558        -1.827964
 C         2.083037         0.190398         0.439884
 O         2.635097         0.548735         1.434527
 H         3.586899        -2.015689        -4.124035
 H         2.206120        -2.663279        -3.252647
 H         1.808536        -1.974065        -4.800959
 H         2.922400         1.698253        -4.006735
 H         1.899396         0.650582        -4.980415
 H         0.109978         0.358214        -3.154585
 H         2.900491         1.729177        -0.774350
 H         4.345431        -0.062421        -1.964472
 H         3.165189        -1.294572        -1.419455
 H         1.057615        -0.167575         0.353663
