19
Iteration:   322
 C         2.577932        -1.774521        -4.002232
 C         2.360319        -0.382790        -3.202881
 C         2.162960         0.934413        -3.846192
 C         1.104741         0.473429        -2.890392
 O         1.240931         1.001724        -1.623347
 C         2.528202         0.640315        -1.018536
 C         3.148561        -0.483821        -1.845167
 C         2.219977         0.079364         0.367321
 O         2.354934         0.825546         1.378333
 H         2.626678        -2.524089        -3.169794
 H         1.842004        -1.914022        -4.852859
 H         3.544741        -1.969931        -4.469231
 H         2.810181         1.780175        -3.741410
 H         1.780322         0.975128        -4.839600
 H         0.087736         0.476282        -3.287486
 H         3.163340         1.581158        -0.883991
 H         4.223138        -0.257154        -1.809773
 H         2.921128        -1.413377        -1.467241
 H         1.850177        -1.047274         0.366580
