19
Iteration:  3181
 C         2.563690        -1.699739        -3.625882
 C         2.535497        -0.318084        -3.110735
 C         2.103272         0.720363        -4.034788
 C         1.113985         0.171065        -2.922323
 O         1.033255         0.943199        -1.694813
 C         2.255191         1.081250        -0.963201
 C         3.268871         0.171014        -1.804167
 C         2.030173         0.582031         0.446284
 O         2.826612        -0.178252         1.042176
 H         3.555464        -2.105308        -4.013470
 H         2.141024        -2.359099        -2.831208
 H         2.025505        -1.789272        -4.603115
 H         2.356864         1.774747        -4.037981
 H         1.871796         0.214738        -4.957370
 H         0.240813        -0.464426        -2.981602
 H         2.443239         2.182896        -0.874064
 H         4.203409         0.781796        -2.153717
 H         3.665960        -0.700391        -1.127996
 H         0.919458         0.458230         0.852413
