19
Iteration:   789
 C         2.539216        -1.638771        -4.061656
 C         2.387195        -0.454904        -3.182805
 C         2.383770         0.944052        -3.767785
 C         1.156807         0.366824        -2.944167
 O         1.098848         0.970513        -1.738877
 C         2.267954         0.683124        -1.007143
 C         3.006082        -0.539910        -1.714945
 C         1.999248         0.277140         0.514907
 O         2.777649         0.698267         1.281130
 H         2.945399        -2.404636        -3.491039
 H         1.771678        -1.823008        -4.742455
 H         3.480962        -1.421347        -4.726700
 H         3.057797         1.787510        -3.486848
 H         2.256666         0.841321        -4.854107
 H         0.251849         0.254810        -3.484212
 H         2.991249         1.484866        -0.924971
 H         4.170673        -0.500646        -1.703303
 H         2.672736        -1.597155        -1.294677
 H         1.114478        -0.220365         0.659499
