19
Iteration:  3605
 C         2.571225        -1.607046        -4.090042
 C         2.496237        -0.480518        -3.084730
 C         2.269764         0.951650        -3.705837
 C         1.182349         0.185905        -3.002529
 O         0.938577         0.777550        -1.664681
 C         2.205672         0.775908        -1.014250
 C         3.067192        -0.343073        -1.717634
 C         1.999824         0.481586         0.498391
 O         2.937217         0.567530         1.181726
 H         3.669646        -1.804767        -4.274878
 H         2.098204        -2.487869        -3.670922
 H         2.045504        -1.349377        -5.062118
 H         2.721654         1.809465        -3.264931
 H         2.296569         1.032738        -4.846276
 H         0.212211         0.018657        -3.406360
 H         2.769120         1.697080        -1.253634
 H         4.090399         0.066087        -1.884627
 H         3.234539        -1.380936        -1.309775
 H         0.967280         0.043615         0.765245
