19
Iteration:  1245
 C         2.677915        -1.670762        -4.153142
 C         2.346873        -0.427943        -3.247945
 C         2.226064         0.912766        -3.806440
 C         1.123694         0.390487        -3.043965
 O         1.035772         0.772175        -1.606966
 C         2.333996         0.704471        -1.013898
 C         2.949927        -0.520224        -1.726287
 C         2.116034         0.478308         0.515731
 O         2.866697         0.679604         1.395117
 H         3.704349        -1.496088        -4.690582
 H         2.806654        -2.590340        -3.561273
 H         1.881079        -1.919598        -4.786571
 H         2.851953         1.758695        -3.497484
 H         1.972082         1.024789        -4.890170
 H         0.167254         0.451145        -3.386331
 H         2.991934         1.541765        -1.162490
 H         4.055183        -0.386689        -1.813722
 H         2.487741        -1.431257        -1.170298
 H         0.975099         0.158168         0.728897
