19
Iteration:  4399charge 0 multiplicity 1
 C         2.436131        -1.782906        -3.941789
 C         2.464561        -0.479296        -3.167715
 C         2.321141         0.880675        -3.974168
 C         1.142900         0.389803        -3.025805
 O         1.040810         0.978964        -1.636568
 C         2.289771         0.787878        -0.930573
 C         3.117593        -0.225324        -1.813241
 C         2.101345         0.207868         0.425199
 O         2.771927         0.580018         1.431160
 H         3.406980        -2.126350        -4.302830
 H         1.875719        -2.581428        -3.363326
 H         1.747393        -1.673227        -4.859694
 H         3.015108         1.628265        -3.779135
 H         2.142686         0.767903        -5.030111
 H         0.219306         0.406970        -3.699528
 H         2.776015         1.732368        -0.863834
 H         4.086898         0.197109        -2.071688
 H         3.508462        -1.250193        -1.446835
 H         1.360145        -0.639063         0.514502
