19
Iteration:  3792charge 0 multiplicity 1
 C         2.461966        -1.686189        -4.034816
 C         2.424550        -0.462521        -3.143308
 C         2.209427         0.886453        -3.820257
 C         1.165869         0.317929        -2.963286
 O         1.104252         0.913929        -1.635934
 C         2.380216         0.774805        -0.991734
 C         3.199257        -0.246676        -1.873276
 C         2.076416         0.199544         0.408989
 O         2.670522         0.649616         1.375538
 H         3.468923        -2.190140        -3.963795
 H         1.770483        -2.459434        -3.685326
 H         2.205776        -1.638165        -5.079874
 H         2.501093         1.977591        -3.649568
 H         2.182584         0.741779        -4.832943
 H         0.116486        -0.057158        -3.162387
 H         2.929729         1.696741        -0.848105
 H         4.241577         0.157751        -2.075724
 H         3.353496        -1.141305        -1.274367
 H         1.443771        -0.753089         0.418475
