19
Iteration:  1529charge 0 multiplicity 1
 C         2.602775        -1.803102        -3.699385
 C         2.315518        -0.382614        -3.067811
 C         2.026199         0.876805        -3.907097
 C         1.086530         0.417849        -2.887650
 O         1.202907         1.062991        -1.589748
 C         2.440011         0.739580        -1.058809
 C         3.260077        -0.078586        -2.019030
 C         2.322221        -0.006940         0.254326
 O         2.399724         0.514081         1.296812
 H         3.719979        -1.921228        -3.929470
 H         2.419358        -2.574109        -2.974566
 H         2.029778        -2.027039        -4.518650
 H         2.694914         1.897386        -3.851301
 H         1.912162         0.724035        -4.989850
 H         0.039735         0.138440        -3.308439
 H         2.982187         1.668570        -0.838088
 H         4.174911         0.546567        -2.396338
 H         3.556918        -1.047935        -1.498454
 H         1.800274        -1.042330         0.283977
