19
Iteration:   560
 C         2.482717        -1.769434        -4.035423
 C         2.512424        -0.438599        -3.130550
 C         2.186979         1.017023        -3.885073
 C         1.226444         0.351802        -2.979914
 O         1.110991         0.793537        -1.656335
 C         2.434338         0.657621        -1.018883
 C         3.309607        -0.359749        -1.785732
 C         1.999727         0.724212         0.459632
 O         2.545460         0.355887         1.403689
 H         2.084407        -2.631686        -3.451063
 H         1.810648        -1.579820        -4.878118
 H         3.423180        -2.141867        -4.720518
 H         2.459032         2.012858        -3.672768
 H         1.811217         0.890306        -4.890690
 H         0.243697        -0.047340        -3.473572
 H         2.937820         1.698066        -1.017586
 H         4.274956         0.176999        -1.924145
 H         3.364259        -1.290966        -1.274972
 H         0.888140         1.060627         0.529372
