19
Iteration:  1940charge 0 multiplicity 1
 C         2.651656        -1.697456        -3.811116
 C         2.365184        -0.443196        -3.150500
 C         2.156541         0.911085        -3.926175
 C         1.068901         0.341866        -3.087947
 O         1.083167         1.040387        -1.768540
 C         2.274909         0.704907        -0.991856
 C         3.125879        -0.267388        -1.873453
 C         2.059445         0.163661         0.488159
 O         2.849175         0.586596         1.417241
 H         3.648509        -1.588455        -4.199551
 H         2.488383        -2.679066        -3.233030
 H         2.025084        -1.880838        -4.708860
 H         2.517290         1.834823        -3.336845
 H         2.081632         0.916451        -4.987804
 H         0.097466        -0.156772        -3.335116
 H         2.756472         1.642193        -0.768038
 H         4.153791         0.061286        -1.958072
 H         3.144180        -1.305769        -1.494766
 H         1.364146        -0.683756         0.539240
