19
Iteration:     3charge 0 multiplicity 1
 C         2.720746        -1.716726        -3.790314
 C         2.500513        -0.377409        -3.091858
 C         2.169441         0.886316        -3.898978
 C         1.131120         0.291371        -2.965310
 O         0.974035         0.844018        -1.698217
 C         2.216515         0.885061        -1.051988
 C         3.154939        -0.148070        -1.753209
 C         1.998130         0.613996         0.433159
 O         2.804727         0.123261         1.162510
 H         2.455913        -2.575947        -3.200355
 H         2.065434        -1.817429        -4.762918
 H         3.802739        -1.727273        -4.114298
 H         2.692194         1.776176        -3.571499
 H         2.080238         0.760931        -4.995820
 H         0.220455        -0.109577        -3.372518
 H         2.718888         1.832539        -1.102858
 H         4.240928         0.174885        -1.768460
 H         3.169548        -1.121219        -1.170250
 H         1.017631         0.846529         0.710278
