19
Iteration:  4468
 C         2.636701        -1.699633        -3.903655
 C         2.384222        -0.491554        -3.222266
 C         2.211669         0.954431        -3.891119
 C         1.103695         0.383710        -2.967142
 O         1.062116         0.943901        -1.717890
 C         2.360669         0.708586        -0.959257
 C         3.040259        -0.434382        -1.817611
 C         1.973243         0.478246         0.459872
 O         2.874833         0.486139         1.340366
 H         3.618836        -1.713602        -4.398117
 H         2.541223        -2.611205        -3.274458
 H         1.874619        -1.801395        -4.659361
 H         2.872892         1.796152        -3.496499
 H         1.998411         0.929672        -4.955463
 H         0.188025         0.332984        -3.432502
 H         3.065103         1.543590        -0.985638
 H         4.199235        -0.423689        -1.792849
 H         2.877865        -1.406227        -1.248120
 H         0.872971         0.424466         0.560268
