19
Iteration:  4094
 C         2.658649        -1.656343        -4.139180
 C         2.343961        -0.500826        -3.144931
 C         2.264330         0.919921        -3.805003
 C         1.143109         0.350969        -2.986193
 O         1.028478         0.889408        -1.699237
 C         2.210965         0.695573        -0.980223
 C         2.994834        -0.401991        -1.677402
 C         2.003936         0.564282         0.486597
 O         2.965439         0.481393         1.289080
 H         3.641032        -1.568192        -4.481711
 H         2.643581        -2.639627        -3.600408
 H         1.877196        -1.915783        -4.890819
 H         2.907487         1.643004        -3.411753
 H         2.043200         0.956401        -4.892474
 H         0.202773         0.202370        -3.484487
 H         2.941552         1.501338        -1.002996
 H         4.056581        -0.161180        -1.726416
 H         3.040859        -1.380277        -1.171944
 H         0.931110         0.512906         0.844744
