19
Iteration:  1766charge 0 multiplicity 1
 C         2.713071        -1.631860        -3.820602
 C         2.401869        -0.326934        -3.167138
 C         2.233858         0.926607        -3.913564
 C         1.121819         0.347745        -3.036093
 O         0.971026         0.827807        -1.733707
 C         2.188046         0.688584        -1.009134
 C         2.992739        -0.355523        -1.765568
 C         2.004131         0.454237         0.489823
 O         3.010624         0.429066         1.277869
 H         3.706027        -1.676669        -4.213020
 H         2.535744        -2.501688        -3.122352
 H         2.139881        -1.827253        -4.696743
 H         2.646273         1.841064        -3.682672
 H         2.175534         0.855921        -5.057692
 H         0.198385        -0.002496        -3.398358
 H         2.804792         1.671068        -1.051886
 H         4.018503        -0.051143        -1.640799
 H         2.932479        -1.351982        -1.295014
 H         0.896483         0.438345         0.778690
