19
Iteration:  2053charge 0 multiplicity 1
 C         2.592747        -1.721186        -3.681352
 C         2.415612        -0.359729        -3.164626
 C         2.017925         0.853619        -4.111107
 C         1.079359         0.410792        -2.939545
 O         1.174371         1.015472        -1.639513
 C         2.445272         0.820563        -0.970345
 C         3.300583        -0.142547        -1.969792
 C         2.144525         0.056405         0.319334
 O         2.535307         0.469376         1.449098
 H         3.624220        -1.860342        -4.072743
 H         2.490118        -2.497857        -2.860581
 H         1.730528        -1.986233        -4.285328
 H         2.570575         1.747385        -4.289571
 H         1.672767         0.326897        -5.118908
 H         0.072434         0.066275        -3.151859
 H         2.980983         1.768387        -0.901187
 H         4.347541         0.282629        -2.149582
 H         3.443714        -1.138971        -1.579755
 H         1.381007        -0.728023         0.333635
