19
Iteration:  2631
 C         2.525394        -1.703738        -3.786454
 C         2.484941        -0.428389        -3.096339
 C         2.172341         0.796997        -4.000923
 C         1.130739         0.301948        -2.936234
 O         1.065406         1.027653        -1.748204
 C         2.279852         0.943653        -0.997755
 C         3.181433        -0.148953        -1.707287
 C         2.069305         0.280315         0.347374
 O         2.799228         0.307160         1.267156
 H         3.604072        -1.900517        -4.230660
 H         2.107716        -2.591062        -3.164804
 H         1.771773        -1.649462        -4.635205
 H         2.533961         1.854396        -3.892234
 H         2.005440         0.665740        -5.017100
 H         0.184063        -0.189877        -3.118346
 H         2.645840         1.997289        -0.883640
 H         4.294095         0.147035        -1.777509
 H         3.225728        -0.997729        -0.988164
 H         1.293033        -0.450680         0.195831
