19
Iteration:  4808
 C         2.453515        -1.767324        -3.943606
 C         2.453457        -0.414649        -3.139348
 C         2.117187         0.888879        -3.906169
 C         1.132710         0.326300        -2.939316
 O         1.220672         1.088812        -1.766923
 C         2.453210         0.746949        -0.992805
 C         3.239992        -0.309762        -1.819224
 C         2.000673         0.214690         0.459448
 O         2.633179         0.556240         1.377695
 H         3.327013        -2.008873        -4.640395
 H         2.352046        -2.753681        -3.450973
 H         1.508539        -1.765469        -4.557272
 H         2.560109         1.843867        -3.599922
 H         2.239356         0.737319        -4.945171
 H         0.228316        -0.016345        -3.285471
 H         2.983797         1.734452        -0.784186
 H         4.338452        -0.012755        -1.989687
 H         3.154053        -1.161672        -1.116574
 H         1.064885        -0.385168         0.632491
