19
Iteration:   262
 C         2.222146        -1.712497        -4.190212
 C         2.511436        -0.468442        -3.171479
 C         2.194121         1.027645        -3.861809
 C         1.295749         0.380820        -2.857578
 O         1.247471         0.772070        -1.554633
 C         2.568291         0.593515        -0.928537
 C         3.362084        -0.433475        -1.950322
 C         2.206293         0.143062         0.472460
 O         2.172816         1.030336         1.390616
 H         1.672172        -2.522569        -3.788624
 H         1.542676        -1.494609        -4.955958
 H         3.142997        -1.938641        -4.707303
 H         2.772454         1.923822        -3.414448
 H         1.958273         0.900731        -4.911930
 H         0.516662        -0.287187        -3.357256
 H         3.025347         1.554918        -0.936795
 H         4.373721        -0.039154        -2.060456
 H         3.573216        -1.535573        -1.533896
 H         1.991382        -1.007304         0.814802
