19
Iteration:  4031
 C         2.522649        -1.752184        -3.924966
 C         2.435761        -0.379414        -3.136379
 C         2.295430         0.931475        -3.771464
 C         1.176155         0.339582        -3.024901
 O         0.976085         0.828148        -1.692283
 C         2.228102         0.702645        -0.949766
 C         3.156702        -0.276200        -1.780780
 C         1.949158         0.592401         0.477153
 O         2.946843         0.362680         1.171101
 H         3.570922        -2.183653        -4.067120
 H         1.893536        -2.408587        -3.301604
 H         2.078446        -1.647842        -4.932626
 H         2.718785         1.800928        -3.325553
 H         2.211082         1.180687        -4.882744
 H         0.277180        -0.030045        -3.460530
 H         2.700287         1.725218        -1.112990
 H         4.197457         0.120495        -1.991114
 H         3.180475        -1.356397        -1.493663
 H         0.866062         0.581956         0.900587
