19
Iteration:  4318charge 0 multiplicity 1
 C         2.425340        -1.735891        -3.990473
 C         2.404462        -0.469212        -3.138649
 C         2.200217         0.803444        -3.964711
 C         1.116665         0.388074        -2.945971
 O         1.172242         1.013495        -1.676855
 C         2.433116         0.787051        -1.027222
 C         3.166812        -0.235357        -1.837896
 C         2.168733         0.173161         0.387781
 O         2.611347         0.604663         1.516501
 H         3.440352        -2.059144        -4.471458
 H         2.166168        -2.632806        -3.447175
 H         1.746795        -1.546786        -4.788598
 H         2.838978         1.594726        -3.458937
 H         2.122488         0.834961        -5.115534
 H         0.156173         0.079055        -3.252558
 H         2.864768         1.842938        -0.963334
 H         4.208798         0.073496        -2.010429
 H         3.140745        -1.217075        -1.364613
 H         1.416784        -0.642858         0.316090
