19
Iteration:  3453charge 0 multiplicity 1
 C         2.683788        -1.776284        -3.613885
 C         2.427304        -0.332825        -3.130507
 C         2.005509         0.854706        -3.996778
 C         1.082368         0.297701        -3.001005
 O         1.041950         0.987063        -1.730844
 C         2.350167         0.846450        -1.041047
 C         3.281760        -0.002576        -1.934114
 C         2.051707         0.397304         0.444955
 O         2.755321         0.074534         1.307806
 H         3.829308        -1.722939        -3.832432
 H         2.641023        -2.650728        -2.858811
 H         2.085467        -2.013665        -4.562624
 H         2.446908         1.875396        -3.794213
 H         1.796076         0.639278        -4.971892
 H         0.158134        -0.255029        -3.206243
 H         2.702583         1.915418        -1.074552
 H         3.981329         0.818374        -2.152771
 H         3.730374        -0.908076        -1.524461
 H         0.903855         0.632581         0.674562
