19
Iteration:     4charge 0 multiplicity 1
 C         2.723609        -1.725548        -3.786736
 C         2.505925        -0.375370        -3.089818
 C         2.165026         0.889345        -3.901813
 C         1.125516         0.298057        -2.961105
 O         0.974999         0.842162        -1.695545
 C         2.205649         0.888294        -1.054597
 C         3.153785        -0.146962        -1.755004
 C         2.001495         0.615007         0.432822
 O         2.807088         0.123843         1.159022
 H         2.444770        -2.599931        -3.219239
 H         2.067517        -1.832144        -4.777903
 H         3.815729        -1.693490        -4.108623
 H         2.717250         1.760047        -3.550218
 H         2.108733         0.762655        -5.007253
 H         0.212882        -0.096016        -3.380082
 H         2.746596         1.820820        -1.097060
 H         4.257566         0.152464        -1.741805
 H         3.158190        -1.131006        -1.172720
 H         1.005871         0.817710         0.692383
