19
Iteration:  2703
 C         2.558259        -1.796531        -3.804617
 C         2.393753        -0.346481        -3.280154
 C         2.078917         0.923724        -4.014990
 C         1.132794         0.374497        -2.960526
 O         1.171570         0.936745        -1.618021
 C         2.428345         0.710290        -0.989971
 C         3.255811        -0.224639        -1.977952
 C         2.060337         0.250394         0.432148
 O         2.610200         0.552598         1.507525
 H         3.489059        -1.789003        -4.322326
 H         2.550466        -2.556416        -3.085184
 H         1.780363        -2.158974        -4.430217
 H         2.782786         1.806208        -3.909673
 H         1.676540         0.878896        -5.027040
 H         0.167687         0.069177        -3.312409
 H         2.969016         1.664718        -0.894865
 H         4.273211         0.085971        -2.054388
 H         3.245580        -1.293651        -1.789837
 H         1.281178        -0.480390         0.418412
