19
Iteration:   428charge 0 multiplicity 1
 C         2.648527        -1.772622        -3.765538
 C         2.446281        -0.360704        -3.132829
 C         2.401436         0.946138        -3.917417
 C         1.189447         0.425445        -3.039680
 O         0.904811         0.931817        -1.736203
 C         2.151152         0.729019        -0.996622
 C         2.977865        -0.298833        -1.701748
 C         2.002518         0.519952         0.464831
 O         2.951495         0.269182         1.118417
 H         2.200124        -2.503371        -3.009197
 H         2.053908        -2.061886        -4.587057
 H         3.732346        -1.919733        -3.931459
 H         3.106071         1.716946        -3.534256
 H         2.215890         0.903934        -5.000819
 H         0.295360         0.151793        -3.577237
 H         2.618733         1.700403        -0.982169
 H         4.062867         0.009993        -1.568591
 H         2.942252        -1.315442        -1.152568
 H         0.889449         0.580119         0.946080
