19
Iteration:   425charge 0 multiplicity 1
 C         2.624432        -1.776823        -3.738438
 C         2.451811        -0.368755        -3.126354
 C         2.390609         0.940386        -3.910736
 C         1.193498         0.430933        -3.017991
 O         0.910464         0.918563        -1.762993
 C         2.155072         0.735716        -0.986317
 C         3.011386        -0.320051        -1.720929
 C         1.997146         0.519075         0.462233
 O         2.942416         0.278759         1.135712
 H         2.198439        -2.494147        -3.097330
 H         2.032522        -1.954788        -4.636100
 H         3.761821        -1.890787        -3.986958
 H         3.025954         1.738550        -3.528540
 H         2.199296         1.032982        -5.024115
 H         0.355789         0.190086        -3.606117
 H         2.631194         1.731156        -1.005229
 H         4.017099        -0.004063        -1.660442
 H         2.965830        -1.227785        -1.192368
 H         0.903252         0.532564         0.889222
