19
Iteration:   744
 C         2.568915        -1.659179        -4.152165
 C         2.448529        -0.473357        -3.195788
 C         2.230264         0.966101        -3.855030
 C         1.204597         0.319129        -2.984927
 O         1.130727         0.840445        -1.652720
 C         2.454151         0.718095        -1.028618
 C         3.030523        -0.538236        -1.843705
 C         1.975793         0.605693         0.494293
 O         2.683212         0.580017         1.539937
 H         2.347101        -2.484347        -3.554060
 H         1.877391        -1.476614        -4.890126
 H         3.549362        -1.957795        -4.692813
 H         2.890807         1.798545        -3.590636
 H         2.095338         0.928912        -4.890258
 H         0.270039        -0.020519        -3.383181
 H         3.101275         1.585005        -1.017708
 H         4.151539        -0.662628        -1.968778
 H         2.521561        -1.451330        -1.266594
 H         0.846537         0.500693         0.524006
