19
Iteration:   745
 C         2.571159        -1.659538        -4.155451
 C         2.438577        -0.467591        -3.188660
 C         2.225076         0.969573        -3.846213
 C         1.203707         0.313818        -2.992381
 O         1.134528         0.844557        -1.653391
 C         2.456217         0.717951        -1.034793
 C         3.031435        -0.555392        -1.832228
 C         1.987143         0.601555         0.494764
 O         2.677799         0.582291         1.535864
 H         2.363941        -2.451651        -3.538583
 H         1.893459        -1.513456        -4.894276
 H         3.558109        -1.932493        -4.743990
 H         2.932634         1.804576        -3.628489
 H         2.072448         0.927126        -4.887316
 H         0.272282         0.007190        -3.362782
 H         3.083735         1.625936        -1.038058
 H         4.169360        -0.652996        -1.954101
 H         2.523118        -1.430460        -1.258191
 H         0.801014         0.487764         0.520127
