19
Iteration:   841charge 0 multiplicity 1
 C         2.416871        -1.712287        -3.839407
 C         2.412535        -0.411075        -3.183310
 C         2.486059         1.012487        -3.816785
 C         1.296230         0.531616        -3.074321
 O         0.961656         0.683616        -1.677607
 C         2.179570         0.723322        -1.046240
 C         3.023045        -0.360672        -1.735487
 C         2.084810         0.298582         0.373753
 O         2.832789         0.622714         1.314921
 H         1.799459        -2.447710        -3.230791
 H         2.118941        -1.427092        -4.861408
 H         3.379285        -2.127609        -4.036838
 H         3.231599         1.681740        -3.417246
 H         2.295609         1.312263        -4.787176
 H         0.450648         0.278287        -3.655914
 H         2.731557         1.646025        -1.097202
 H         4.076668        -0.187724        -1.692424
 H         2.757402        -1.299642        -1.304060
 H         1.281922        -0.569587         0.410471
