19
Iteration:  2622
 C         2.559614        -1.713547        -3.724971
 C         2.431849        -0.375142        -3.077508
 C         2.147680         0.811628        -3.994234
 C         1.220719         0.358320        -2.978017
 O         1.020244         1.006543        -1.717844
 C         2.268528         0.964385        -1.032284
 C         3.201894        -0.203617        -1.745058
 C         2.007278         0.247355         0.321540
 O         2.845370         0.313614         1.277202
 H         3.502977        -2.095510        -4.079073
 H         2.205360        -2.508612        -2.967919
 H         1.988841        -1.745229        -4.689532
 H         2.634953         1.799106        -3.741022
 H         1.774191         0.553593        -4.990816
 H         0.237785         0.021446        -3.323501
 H         2.778981         1.945707        -0.968648
 H         4.207112         0.274329        -1.854496
 H         3.273076        -1.196541        -1.329948
 H         1.123666        -0.497127         0.422283
