19
Iteration:  4605
 C         2.651866        -1.654409        -3.953183
 C         2.402894        -0.464549        -3.072877
 C         2.277646         0.831269        -3.887839
 C         1.068531         0.371221        -3.110814
 O         1.001277         1.020257        -1.749048
 C         2.249412         0.715710        -0.974592
 C         3.015573        -0.421950        -1.684029
 C         2.020947         0.501975         0.427265
 O         2.960427         0.424027         1.315277
 H         3.619926        -1.755990        -4.351877
 H         2.309211        -2.534470        -3.517142
 H         1.888589        -1.433914        -4.706628
 H         2.773819         1.584833        -3.350934
 H         2.429445         0.824287        -4.939027
 H         0.101970         0.064314        -3.392878
 H         2.909640         1.610844        -1.116237
 H         4.028821        -0.222781        -1.654956
 H         2.940146        -1.379959        -1.209078
 H         0.995760         0.327438         0.911305
