19
Iteration:  1507charge 0 multiplicity 1
 C         2.482114        -1.732730        -3.769876
 C         2.421996        -0.336619        -3.113537
 C         2.029119         0.822980        -3.941537
 C         1.107517         0.275409        -2.826153
 O         1.158238         1.048309        -1.683146
 C         2.510644         0.833216        -0.977157
 C         3.359852        -0.117125        -1.917128
 C         2.145696         0.096652         0.221112
 O         2.466212         0.472023         1.334904
 H         3.543944        -1.909743        -4.174271
 H         2.347094        -2.436934        -2.978323
 H         1.794522        -1.884513        -4.523392
 H         2.475963         1.945823        -3.750545
 H         1.787721         0.911869        -4.987298
 H         0.162352        -0.359195        -3.065677
 H         3.041223         1.768346        -0.800889
 H         4.370960         0.377280        -2.244413
 H         3.589983        -1.093922        -1.428216
 H         1.827130        -0.994885         0.080719
