19
Iteration:  4498charge 0 multiplicity 1
 C         2.534020        -1.683840        -3.983130
 C         2.418323        -0.503977        -3.148198
 C         2.339035         0.874098        -3.942358
 C         1.175881         0.393737        -3.026784
 O         0.900431         0.833346        -1.705379
 C         2.254519         0.795301        -0.990935
 C         3.073217        -0.349289        -1.752559
 C         2.080858         0.535717         0.544873
 O         2.922968         0.444791         1.372064
 H         3.558036        -1.769049        -4.365867
 H         2.124784        -2.714767        -3.611126
 H         1.997130        -1.378203        -4.965516
 H         3.136166         1.509968        -3.699085
 H         2.337617         0.949476        -5.020604
 H         0.252678         0.163326        -3.531085
 H         2.704485         1.787101        -1.171489
 H         4.162624        -0.236708        -1.676611
 H         2.704121        -1.284325        -1.192560
 H         0.963107         0.520665         0.824571
