19
Iteration:   722charge 0 multiplicity 1
 C         2.452061        -1.670994        -4.085453
 C         2.464153        -0.397178        -3.198865
 C         2.313743         0.954133        -3.899203
 C         1.181723         0.346982        -3.025055
 O         1.094028         0.825496        -1.672752
 C         2.302018         0.606786        -1.016680
 C         3.162323        -0.467528        -1.742224
 C         1.977192         0.563468         0.468524
 O         2.755772         0.549266         1.472058
 H         1.964405        -2.410360        -3.532589
 H         2.182684        -1.529378        -5.073493
 H         3.550210        -2.078879        -4.166508
 H         2.922004         1.776586        -3.573979
 H         2.133381         0.977845        -4.954246
 H         0.189325         0.077284        -3.438703
 H         2.828729         1.580650        -1.065944
 H         4.212268        -0.092681        -1.650225
 H         3.010823        -1.543986        -1.303515
 H         0.797621         0.758972         0.626315
