19
Iteration:   921
 C         2.708570        -1.699619        -3.974370
 C         2.414574        -0.412734        -3.190659
 C         2.103472         0.893557        -3.967821
 C         1.199318         0.353272        -2.899355
 O         1.069569         1.027632        -1.684980
 C         2.420639         0.824204        -1.031010
 C         3.007778        -0.428082        -1.787492
 C         2.044027         0.455290         0.457708
 O         2.733151         0.366812         1.412023
 H         1.816880        -1.996793        -4.410389
 H         3.072871        -1.494015        -4.921339
 H         3.406426        -2.450847        -3.369990
 H         2.830938         1.745704        -3.872067
 H         1.915239         0.438244        -5.054829
 H         0.113760         0.041106        -3.100955
 H         3.023756         1.692295        -1.154484
 H         4.176562        -0.376059        -1.727643
 H         2.658388        -1.304379        -1.136961
 H         0.985743         0.309965         0.500222
