19
Iteration:  1350
 C         2.570951        -1.746791        -3.733979
 C         2.386135        -0.416666        -3.157663
 C         2.349963         1.011821        -3.863568
 C         1.173987         0.429251        -3.020923
 O         0.911931         0.829828        -1.725221
 C         2.126782         0.720666        -0.971161
 C         3.169440        -0.288229        -1.857846
 C         1.935881         0.453347         0.481654
 O         3.013797         0.380000         1.147180
 H         3.504946        -2.104604        -3.692031
 H         1.908888        -2.496222        -3.220181
 H         2.380143        -1.802379        -4.852661
 H         2.913608         1.737984        -3.326608
 H         1.995448         1.063919        -4.907826
 H         0.195784         0.189936        -3.489465
 H         2.694696         1.600180        -1.006457
 H         4.144994         0.153148        -2.056145
 H         3.492581        -1.141035        -1.257169
 H         1.024258         0.219543         1.191279
