19
Iteration:  3811charge 0 multiplicity 1
 C         2.545744        -1.723593        -3.972582
 C         2.328190        -0.489706        -3.115030
 C         2.198498         0.834094        -3.952366
 C         1.109186         0.327556        -2.919451
 O         1.058362         1.005019        -1.706024
 C         2.371148         0.788282        -1.037840
 C         3.196064        -0.197806        -1.826886
 C         2.227704         0.199101         0.402317
 O         2.653734         0.558788         1.491063
 H         3.555185        -2.092508        -3.993542
 H         1.804945        -2.504903        -3.762165
 H         2.327040        -1.402435        -5.059525
 H         3.020714         1.436731        -3.405793
 H         1.956682         1.060340        -4.966059
 H         0.127554         0.108354        -3.390671
 H         2.666969         1.841835        -0.987431
 H         4.143643         0.197790        -2.169866
 H         3.348121        -1.151741        -1.332960
 H         1.556915        -0.621891         0.242629
