19
Iteration:   739
 C         2.557009        -1.659163        -4.130165
 C         2.485986        -0.477830        -3.234953
 C         2.258161         0.939023        -3.881405
 C         1.203367         0.341971        -2.964390
 O         1.118073         0.825850        -1.653123
 C         2.434285         0.700062        -0.999499
 C         3.029379        -0.484253        -1.863064
 C         1.970014         0.612910         0.512439
 O         2.690129         0.572663         1.530523
 H         2.209753        -2.671517        -3.618418
 H         1.766869        -1.394625        -4.962549
 H         3.525628        -1.948507        -4.454735
 H         2.720635         1.814060        -3.392715
 H         2.155088         0.926160        -5.007645
 H         0.260770        -0.073551        -3.409810
 H         3.189964         1.541326        -1.019050
 H         4.084469        -0.661984        -1.909884
 H         2.655568        -1.394044        -1.426305
 H         0.870273         0.560225         0.568375
