19
Iteration:  3735
 C         2.522641        -1.742137        -4.060129
 C         2.426788        -0.458181        -3.273647
 C         2.275116         1.056121        -3.840710
 C         1.151197         0.379172        -3.025988
 O         0.971656         0.725755        -1.612563
 C         2.367444         0.671724        -1.004708
 C         3.116138        -0.399821        -1.827162
 C         2.187733         0.310811         0.494726
 O         2.711408         0.794037         1.469983
 H         3.468341        -1.592342        -4.572485
 H         2.422059        -2.685389        -3.521595
 H         1.825410        -1.704405        -4.940689
 H         3.030137         1.659081        -3.356614
 H         2.016194         1.189505        -4.928806
 H         0.184263         0.189600        -3.450145
 H         2.759022         1.676297        -1.068206
 H         4.184474        -0.207678        -1.715525
 H         2.913622        -1.413437        -1.484102
 H         1.324732        -0.491406         0.443504
