19
Iteration:  4627charge 0 multiplicity 1
 C         2.549047        -1.679599        -3.963717
 C         2.437973        -0.422847        -3.077334
 C         2.211367         0.946424        -3.820841
 C         1.193485         0.309757        -2.889770
 O         1.125384         0.960759        -1.732421
 C         2.320365         0.778148        -1.035560
 C         3.069683        -0.467031        -1.731753
 C         1.943722         0.466977         0.333856
 O         2.831132         0.460019         1.239013
 H         3.539797        -1.670933        -4.305590
 H         2.439589        -2.496002        -3.323626
 H         1.779773        -1.746137        -4.736078
 H         2.629065         1.903366        -3.545437
 H         2.126013         0.713694        -4.831943
 H         0.247833         0.021557        -3.230401
 H         3.034958         1.626615        -1.149035
 H         4.093250        -0.410112        -1.696994
 H         2.832441        -1.333431        -1.144752
 H         0.894947         0.222774         0.737615
