19
Iteration:  4306
 C         2.429415        -1.696972        -4.007531
 C         2.319425        -0.486337        -3.114443
 C         2.215868         0.787198        -3.867179
 C         1.121890         0.372361        -2.971168
 O         1.168842         1.059951        -1.728957
 C         2.418227         0.751817        -0.976253
 C         3.252268        -0.291024        -1.896370
 C         2.104508         0.200738         0.447876
 O         2.621826         0.614030         1.468438
 H         3.506134        -1.505896        -4.377208
 H         2.300694        -2.662785        -3.529892
 H         1.777849        -1.692642        -4.843605
 H         2.783859         1.728127        -3.733824
 H         1.912999         0.586382        -5.006056
 H         0.087372         0.089838        -3.284448
 H         3.134369         1.661538        -0.836693
 H         4.314455         0.001761        -2.117011
 H         3.387282        -1.207362        -1.354513
 H         1.425114        -0.682830         0.542891
