19
Iteration:  3390
 C         2.609686        -1.684430        -3.568503
 C         2.522432        -0.323275        -3.017686
 C         2.089376         0.780624        -3.957959
 C         1.062356         0.138165        -2.903725
 O         1.092600         1.000854        -1.832635
 C         2.227543         1.009210        -1.036504
 C         3.204889         0.082986        -1.678957
 C         1.935477         0.488073         0.405240
 O         2.908789        -0.106250         0.948433
 H         3.429735        -1.606094        -4.270910
 H         2.599299        -2.430373        -2.751184
 H         1.919566        -1.883003        -4.303991
 H         2.247352         1.863343        -3.681566
 H         2.134076         0.562503        -4.968009
 H         0.195609        -0.462308        -3.169602
 H         2.609667         2.024887        -0.901426
 H         4.205625         0.527790        -1.905006
 H         3.416525        -0.881390        -1.126987
 H         1.028300         0.800854         0.967192
