19
Iteration:  1391charge 0 multiplicity 1
 C         2.576050        -1.683339        -3.686402
 C         2.465669        -0.326311        -3.041813
 C         2.226522         0.843028        -3.940773
 C         1.172214         0.342112        -3.005013
 O         0.923629         0.929347        -1.781627
 C         2.163427         1.034622        -1.090396
 C         3.056734        -0.191464        -1.674719
 C         2.057539         0.316153         0.377948
 O         3.027257         0.190248         1.195368
 H         3.672349        -1.940311        -3.781590
 H         2.174989        -2.476841        -3.019983
 H         2.007553        -1.693332        -4.716597
 H         2.833368         1.756074        -3.806981
 H         2.169746         0.660415        -4.968166
 H         0.168045        -0.039103        -3.439766
 H         2.483018         2.115440        -1.150885
 H         4.149440        -0.006942        -1.613788
 H         2.917007        -1.217733        -1.017105
 H         1.220724        -0.347327         0.285476
