19
Iteration:  3424charge 0 multiplicity 1
 C         2.786094        -1.821334        -3.648889
 C         2.431888        -0.387357        -3.155923
 C         2.123942         0.747390        -3.990593
 C         1.075852         0.369100        -2.902488
 O         1.006559         1.039008        -1.616130
 C         2.274002         0.976587        -1.023582
 C         3.151825         0.063812        -1.884288
 C         1.972668         0.430645         0.362741
 O         2.834113        -0.019375         1.163452
 H         3.769934        -1.858612        -4.101606
 H         2.911475        -2.629564        -2.901201
 H         2.077347        -2.195043        -4.333852
 H         2.721819         1.647798        -4.024750
 H         1.649627         0.495783        -4.957988
 H         0.093986         0.011962        -3.157670
 H         2.587338         2.015060        -1.025854
 H         4.053966         0.687398        -2.020250
 H         3.513683        -0.889619        -1.419691
 H         0.997342         0.587078         0.760073
