19
Iteration:  3335
 C         2.792907        -1.740589        -3.525841
 C         2.322503        -0.354630        -3.125637
 C         2.077125         0.741440        -4.090597
 C         1.089789         0.315067        -2.876181
 O         1.078902         0.923866        -1.599946
 C         2.355949         1.026100        -1.023935
 C         3.187315         0.114672        -1.935416
 C         2.054350         0.554893         0.388430
 O         2.705433        -0.177617         1.114431
 H         3.852824        -1.731458        -3.437255
 H         2.468592        -2.519824        -2.787901
 H         2.250722        -1.836590        -4.373705
 H         2.724179         1.656998        -4.062602
 H         1.699960         0.632944        -5.043107
 H         0.146253        -0.190020        -3.169752
 H         2.866249         2.020523        -0.997329
 H         3.847254         0.777591        -2.578869
 H         3.754398        -0.761595        -1.489285
 H         0.901712         0.849231         0.636645
