19
Iteration:  3688
 C         2.587782        -1.522011        -4.160991
 C         2.413322        -0.438171        -3.082539
 C         2.291108         0.977027        -3.735880
 C         1.161842         0.320817        -2.926742
 O         1.006973         0.778134        -1.678765
 C         2.216520         0.608712        -1.055704
 C         3.050987        -0.534146        -1.697925
 C         2.095619         0.288634         0.423775
 O         2.841590         0.863945         1.276303
 H         3.590964        -1.654801        -4.537312
 H         2.353765        -2.440182        -3.546398
 H         1.978700        -1.509454        -5.105403
 H         2.658077         1.905150        -3.225485
 H         2.204198         0.888395        -4.856271
 H         0.236554        -0.148884        -3.311238
 H         2.898100         1.510296        -1.169319
 H         4.108010        -0.371424        -1.697233
 H         2.820581        -1.522704        -1.232107
 H         1.391502        -0.585550         0.617262
