19
Iteration:  4437charge 0 multiplicity 1
 C         2.551126        -1.689485        -3.921504
 C         2.434644        -0.403802        -3.148621
 C         2.205741         0.908317        -3.854620
 C         1.142718         0.308539        -2.965802
 O         1.079236         0.998319        -1.705859
 C         2.402837         0.804064        -1.034299
 C         3.058703        -0.448550        -1.726667
 C         2.051897         0.361708         0.313032
 O         2.787879         0.499197         1.337749
 H         3.502495        -1.916951        -4.446786
 H         2.418117        -2.519828        -3.265320
 H         1.727896        -1.665978        -4.569863
 H         2.564266         1.967731        -3.431841
 H         2.035880         0.654149        -4.916762
 H         0.135765         0.113221        -3.260676
 H         3.128495         1.700071        -1.009355
 H         4.134891        -0.110282        -1.661271
 H         2.820487        -1.319822        -1.168218
 H         1.114397        -0.204212         0.342398
