19
Iteration:  1481
 C         2.470544        -1.734530        -3.896158
 C         2.569011        -0.382669        -3.204168
 C         1.962662         0.737317        -4.008679
 C         1.154195         0.295232        -2.872257
 O         1.215068         0.966283        -1.696666
 C         2.477365         0.899538        -0.996068
 C         3.399092        -0.018068        -1.923788
 C         2.053369         0.218072         0.381107
 O         2.517152         0.387258         1.522891
 H         3.276038        -1.998941        -4.502604
 H         2.269693        -2.621893        -3.176116
 H         1.480293        -1.596051        -4.496267
 H         2.368085         1.688647        -4.123728
 H         1.474490         0.660967        -5.004152
 H         0.208939        -0.086714        -3.077927
 H         2.931870         1.872844        -0.870115
 H         4.382903         0.416101        -2.117219
 H         3.424595        -1.002034        -1.288049
 H         1.064175        -0.424048         0.346880
