19
Iteration:   585
 C         2.542094        -1.629346        -3.947571
 C         2.440336        -0.422917        -3.125359
 C         2.304819         0.834582        -3.909939
 C         1.203786         0.285795        -2.919051
 O         1.131082         0.889409        -1.657203
 C         2.361561         0.824844        -1.102072
 C         3.140545        -0.338735        -1.865330
 C         1.953422         0.584268         0.429692
 O         2.661165         0.319849         1.401813
 H         2.315020        -2.518221        -3.273341
 H         1.827999        -1.725693        -4.856878
 H         3.453831        -1.688199        -4.415058
 H         2.683871         1.793395        -3.507512
 H         2.171407         0.874329        -5.003711
 H         0.282105        -0.051524        -3.279361
 H         2.878632         1.814706        -1.100321
 H         4.244489        -0.092568        -1.867420
 H         2.865682        -1.291344        -1.236381
 H         0.869592         0.611435         0.568350
