19
Iteration:  4429
 C         2.516225        -1.659779        -3.893776
 C         2.431519        -0.415595        -3.070981
 C         2.182074         0.855814        -3.879689
 C         1.152754         0.306248        -3.017611
 O         1.079060         0.991188        -1.709335
 C         2.387434         0.834731        -1.062877
 C         3.105722        -0.384046        -1.735098
 C         2.093402         0.317687         0.365627
 O         2.769003         0.500119         1.357717
 H         3.444568        -1.741626        -4.520013
 H         2.268138        -2.575592        -3.358490
 H         1.741651        -1.507421        -4.683935
 H         2.890845         1.683329        -3.652447
 H         2.093920         0.789815        -4.971504
 H         0.115069         0.147722        -3.466458
 H         2.896777         1.828275        -0.994521
 H         4.194994        -0.336236        -1.711771
 H         2.784776        -1.319942        -1.290735
 H         1.198597        -0.341675         0.475207
