19
Iteration:  1365
 C         2.564302        -1.813007        -3.739866
 C         2.475821        -0.340328        -3.143285
 C         2.286984         0.922631        -3.833335
 C         1.156979         0.392943        -3.061541
 O         0.918415         0.910360        -1.726421
 C         2.134854         0.773466        -1.001072
 C         3.077167        -0.154859        -1.765153
 C         1.980727         0.337028         0.477243
 O         3.056432         0.325644         1.096028
 H         3.633261        -2.218856        -3.542545
 H         1.935144        -2.459698        -3.125134
 H         2.238034        -1.871662        -4.733753
 H         2.923203         1.774906        -3.561504
 H         2.274587         0.986222        -4.962364
 H         0.248028         0.139608        -3.544267
 H         2.548473         1.832161        -0.826900
 H         4.102333         0.280990        -1.719232
 H         3.115630        -1.112529        -1.275923
 H         0.889570         0.196305         0.832355
