19
Iteration:  1467
 C         2.472087        -1.712406        -3.886287
 C         2.424158        -0.371820        -3.167318
 C         2.008644         0.784972        -4.115150
 C         1.177388         0.271244        -2.936120
 O         1.193723         0.998988        -1.668429
 C         2.468054         0.808596        -0.963924
 C         3.392158        -0.078480        -1.941882
 C         1.974854         0.329846         0.455105
 O         2.590220         0.356554         1.554036
 H         3.387062        -1.749043        -4.554851
 H         2.502498        -2.527604        -3.155311
 H         1.632838        -1.908261        -4.648724
 H         2.470064         1.726220        -4.017136
 H         1.770452         0.330220        -5.070876
 H         0.242382        -0.303976        -3.008620
 H         2.890415         1.865387        -0.827826
 H         4.269874         0.470437        -2.196964
 H         3.885258        -0.975730        -1.599069
 H         1.021783        -0.253830         0.251282
