19
Iteration:   132
 C         2.540588        -1.657696        -4.074285
 C         2.476633        -0.395411        -3.277161
 C         2.261292         0.963965        -3.800465
 C         1.197924         0.296585        -2.942142
 O         1.060893         0.778872        -1.589219
 C         2.386424         0.611537        -0.976936
 C         3.129964        -0.481835        -1.880398
 C         1.974913         0.373849         0.442630
 O         2.700329         0.799814         1.385514
 H         2.359622        -2.637964        -3.423542
 H         1.843909        -1.609573        -4.855053
 H         3.521813        -1.792542        -4.489069
 H         2.870174         1.679170        -3.263684
 H         2.057160         1.398939        -4.770951
 H         0.323973        -0.046642        -3.499428
 H         2.908405         1.633688        -0.883939
 H         4.184713        -0.340761        -1.821960
 H         2.872068        -1.428996        -1.505638
 H         0.890952         0.101024         0.544942
