19
Iteration:  1191charge 0 multiplicity 1
 C         2.456370        -1.712814        -3.929416
 C         2.441935        -0.392655        -3.122621
 C         2.320543         0.982844        -3.708584
 C         1.177474         0.417004        -3.045009
 O         0.960542         0.785864        -1.722898
 C         2.106197         0.650433        -1.008206
 C         3.141946        -0.299291        -1.801366
 C         2.123084         0.181708         0.488762
 O         2.904562         0.747825         1.174018
 H         3.483283        -2.170970        -4.197106
 H         1.668951        -2.278026        -3.478183
 H         2.220226        -1.410318        -4.912800
 H         2.890038         1.743313        -3.089431
 H         2.378689         0.915362        -4.778829
 H         0.370505        -0.024161        -3.475770
 H         2.649401         1.556923        -0.868347
 H         4.250441        -0.024208        -1.857146
 H         3.174478        -1.377767        -1.214346
 H         1.483280        -0.644619         0.827000
