19
Iteration:   632
 C         2.692461        -1.766245        -3.710735
 C         2.406834        -0.358452        -3.088816
 C         2.415903         0.898218        -3.866523
 C         1.194418         0.403845        -3.049895
 O         0.974184         1.088415        -1.787233
 C         2.150849         0.799043        -0.920866
 C         2.885099        -0.331171        -1.741778
 C         1.930243         0.323659         0.457000
 O         2.978157         0.328215         1.087716
 H         2.426655        -2.625710        -3.097463
 H         2.167471        -1.882390        -4.671248
 H         3.655174        -1.727454        -4.121749
 H         2.972857         1.871616        -3.706150
 H         2.274491         0.692846        -4.937690
 H         0.231495         0.104694        -3.570754
 H         2.885623         1.577772        -0.902398
 H         3.937684        -0.090079        -1.792160
 H         2.674167        -1.356889        -1.193016
 H         1.052132        -0.108879         0.898066
