19
Iteration:  4585
 C         2.603598        -1.747253        -3.989513
 C         2.373201        -0.477458        -3.182192
 C         2.407531         0.894339        -3.874544
 C         1.185553         0.398125        -3.069569
 O         0.914347         0.911207        -1.726145
 C         2.225805         0.815056        -1.006000
 C         2.922078        -0.347622        -1.722655
 C         2.001038         0.509123         0.556429
 O         3.036689         0.406290         1.327461
 H         3.678301        -1.724104        -4.046548
 H         2.305514        -2.688304        -3.441606
 H         2.281111        -1.846708        -5.065858
 H         3.018568         1.766556        -3.611225
 H         1.910910         0.789243        -4.801311
 H         0.299910         0.205834        -3.573774
 H         2.594564         1.890807        -1.091608
 H         4.000120        -0.320371        -1.663902
 H         2.729050        -1.337607        -1.268801
 H         0.968082         0.395136         1.061253
