19
Iteration:  4307
 C         2.427169        -1.704797        -4.007346
 C         2.325352        -0.468765        -3.111068
 C         2.211672         0.772249        -3.866114
 C         1.118514         0.372439        -2.980427
 O         1.169895         1.054663        -1.729147
 C         2.417095         0.754837        -0.974625
 C         3.251714        -0.278029        -1.898172
 C         2.117894         0.198803         0.462596
 O         2.617315         0.611032         1.465558
 H         3.504504        -1.518570        -4.398295
 H         2.259682        -2.661449        -3.541825
 H         1.787839        -1.703790        -4.850195
 H         2.810596         1.717596        -3.708398
 H         1.928230         0.627970        -5.002121
 H         0.124350         0.104835        -3.259770
 H         3.122357         1.656947        -0.883538
 H         4.306922         0.003818        -2.100815
 H         3.328192        -1.213525        -1.338423
 H         1.419275        -0.672908         0.473639
