19
Iteration:  2080charge 0 multiplicity 1
 C         2.570452        -1.824526        -3.721088
 C         2.415401        -0.459644        -3.161049
 C         2.025730         0.846240        -3.955087
 C         1.102546         0.315000        -2.873648
 O         1.190854         1.086463        -1.698226
 C         2.439637         0.958498        -1.030837
 C         3.238600        -0.073812        -1.960762
 C         2.243958         0.170363         0.284975
 O         2.478295         0.358500         1.411591
 H         3.616778        -1.987893        -4.141105
 H         2.545656        -2.638457        -3.000003
 H         1.659117        -1.989930        -4.362719
 H         2.517951         1.762217        -3.538279
 H         1.819525         0.939979        -4.947955
 H         0.104806        -0.160500        -3.023707
 H         3.016745         1.936350        -1.143537
 H         4.168846         0.422103        -2.086689
 H         3.425972        -1.092226        -1.467405
 H         1.601614        -0.747591        -0.028026
