19
Iteration:   556charge 0 multiplicity 1
 C         2.470819        -1.768501        -4.044332
 C         2.504868        -0.441047        -3.131169
 C         2.197596         1.023360        -3.909097
 C         1.264441         0.344926        -2.960782
 O         1.118587         0.778597        -1.657088
 C         2.380962         0.658160        -1.033815
 C         3.306901        -0.363236        -1.825169
 C         1.998299         0.748215         0.438902
 O         2.552055         0.343794         1.447282
 H         2.171171        -2.603441        -3.434301
 H         1.822352        -1.513452        -4.862400
 H         3.425605        -2.197118        -4.608158
 H         2.341671         2.118162        -3.558473
 H         1.814083         0.880723        -4.912994
 H         0.354915         0.014202        -3.386201
 H         2.935403         1.619430        -1.159257
 H         4.232433         0.128021        -1.906083
 H         3.434511        -1.267610        -1.216825
 H         0.877785         1.170967         0.657350
