19
Iteration:  2750
 C         2.398396        -1.618267        -3.988211
 C         2.457048        -0.436979        -3.078106
 C         2.226955         0.833978        -3.868332
 C         1.176776         0.314967        -2.819626
 O         1.028543         0.881220        -1.623315
 C         2.380411         0.771290        -1.093193
 C         3.245873        -0.202660        -1.824158
 C         2.244193         0.106662         0.310415
 O         2.549482         0.691721         1.312428
 H         3.448221        -2.048575        -4.029107
 H         1.727584        -2.345695        -3.630656
 H         1.874400        -1.581806        -4.898813
 H         2.917329         1.549314        -3.524534
 H         2.196379         0.912052        -4.958416
 H         0.241892        -0.199798        -3.144112
 H         2.878150         1.756622        -0.885778
 H         4.277821         0.243010        -2.162383
 H         3.402967        -1.064557        -1.105356
 H         1.846616        -0.864125         0.313995
