19
Iteration:  1497
 C         2.454763        -1.761374        -3.836687
 C         2.507065        -0.355066        -3.151126
 C         1.988972         0.853217        -3.998995
 C         1.209001         0.227837        -2.833363
 O         1.182994         1.060833        -1.621588
 C         2.472786         0.857885        -1.019406
 C         3.319348        -0.077986        -1.907878
 C         2.146370         0.140042         0.278419
 O         2.471619         0.438170         1.387401
 H         3.447634        -2.052890        -4.358129
 H         2.275602        -2.527647        -3.133738
 H         1.667652        -1.871391        -4.516110
 H         2.440709         1.901813        -3.677748
 H         1.760847         0.512168        -5.004132
 H         0.268709        -0.424962        -2.975191
 H         2.889227         1.871230        -0.822461
 H         4.300682         0.473799        -2.100761
 H         3.480500        -1.025926        -1.417277
 H         1.437609        -0.703179         0.047768
