19
Iteration:  1157charge 0 multiplicity 1
 C         2.488845        -1.721766        -3.968746
 C         2.443774        -0.427727        -3.189377
 C         2.290601         0.950192        -3.880139
 C         1.159330         0.450895        -3.008659
 O         1.004190         0.658817        -1.620595
 C         2.225510         0.803012        -1.027799
 C         3.110095        -0.244274        -1.817156
 C         2.096837         0.379342         0.449749
 O         2.871772         0.571634         1.393805
 H         3.333522        -2.401393        -3.636501
 H         1.668652        -2.439404        -3.795205
 H         2.403734        -1.532760        -5.001416
 H         3.043881         1.800893        -3.714877
 H         2.088224         0.961323        -4.920822
 H         0.234241         0.139111        -3.508292
 H         2.641608         1.788578        -1.129418
 H         4.176300         0.018811        -1.998325
 H         3.010848        -1.335096        -1.309603
 H         1.230595        -0.220043         0.618604
