19
Iteration:  2076charge 0 multiplicity 1
 C         2.575038        -1.820485        -3.708448
 C         2.401584        -0.449232        -3.175642
 C         2.020438         0.843307        -3.969208
 C         1.110475         0.341191        -2.886890
 O         1.171832         1.084278        -1.707677
 C         2.482150         0.930922        -1.049930
 C         3.238278        -0.091006        -1.952240
 C         2.218258         0.169427         0.261647
 O         2.488128         0.356971         1.466395
 H         3.632353        -1.839060        -4.133398
 H         2.509317        -2.573907        -2.901775
 H         1.684578        -2.087859        -4.354015
 H         2.458554         1.772808        -3.515203
 H         1.744072         0.935607        -5.071289
 H         0.174705        -0.138281        -3.040131
 H         2.906134         1.961694        -1.202055
 H         4.276123         0.385340        -2.078533
 H         3.430456        -1.058251        -1.502366
 H         1.688680        -0.759836         0.092739
