19
Iteration:  3175charge 0 multiplicity 1
 C         2.555263        -1.714265        -3.685319
 C         2.471049        -0.322746        -3.056005
 C         2.094699         0.723708        -3.995599
 C         1.136983         0.146205        -2.885699
 O         1.040831         0.952023        -1.743162
 C         2.232966         1.129225        -0.992329
 C         3.328335         0.180857        -1.772452
 C         1.999742         0.536750         0.421929
 O         2.854848        -0.175164         1.056069
 H         3.526560        -2.214994        -3.762987
 H         2.108031        -2.491816        -3.046922
 H         2.045712        -1.679485        -4.637837
 H         2.323596         1.776319        -3.930635
 H         1.959173         0.306905        -5.049203
 H         0.296766        -0.577887        -3.019467
 H         2.539795         2.191843        -0.862574
 H         4.109555         0.837709        -2.090211
 H         3.560327        -0.665519        -1.208797
 H         1.000913         0.657365         0.839508
