19
Iteration:  1053
 C         2.587701        -1.797068        -3.764271
 C         2.455635        -0.380078        -3.172299
 C         2.228159         0.929485        -3.900886
 C         1.130637         0.414187        -3.027952
 O         1.006321         0.899392        -1.674576
 C         2.255953         0.879309        -1.028263
 C         3.085531        -0.231523        -1.763560
 C         2.035156         0.436684         0.415057
 O         2.891534         0.255761         1.209243
 H         3.009938        -1.809305        -4.683036
 H         3.061442        -2.437642        -3.025434
 H         1.604847        -2.283088        -4.101134
 H         2.865909         1.765955        -3.422468
 H         2.219003         0.984123        -4.978364
 H         0.210085         0.081880        -3.345541
 H         2.802527         1.835764        -1.120860
 H         4.143578         0.119108        -1.748572
 H         3.023645        -1.172340        -1.218384
 H         0.974720         0.160084         0.651772
