19
Iteration:   904
 C         2.608535        -1.670485        -4.060876
 C         2.464412        -0.411873        -3.163194
 C         2.214972         0.804502        -3.963921
 C         1.106772         0.401583        -3.031963
 O         1.121840         0.967522        -1.662450
 C         2.346520         0.768053        -0.999344
 C         3.082230        -0.351358        -1.752308
 C         2.055437         0.470429         0.502925
 O         2.732246         0.417544         1.432586
 H         1.683717        -2.418907        -4.171728
 H         3.056272        -1.370154        -5.133484
 H         3.151444        -2.399463        -3.571028
 H         2.626242         1.745878        -3.668316
 H         1.859978         0.621736        -4.905592
 H         0.169132         0.055214        -3.307025
 H         2.992257         1.722034        -1.074840
 H         4.127636        -0.334257        -1.669456
 H         2.804312        -1.300972        -1.279454
 H         0.946593         0.135532         0.750309
