19
Iteration:  4743
 C         2.433168        -1.792520        -3.769913
 C         2.442744        -0.446110        -3.206282
 C         2.233121         0.968732        -3.951180
 C         1.189829         0.381721        -2.994068
 O         1.085741         0.943958        -1.671458
 C         2.440075         0.886739        -1.092596
 C         3.093894        -0.292837        -1.871413
 C         2.143957         0.282273         0.361650
 O         2.629216         0.484530         1.495748
 H         3.550873        -2.091623        -3.958753
 H         1.924166        -2.647423        -3.216231
 H         1.833121        -1.661614        -4.715791
 H         2.884126         1.801032        -3.681104
 H         2.121300         0.869529        -5.002647
 H         0.228478         0.029917        -3.143389
 H         2.968488         1.837840        -1.122178
 H         4.218838        -0.119229        -2.034019
 H         3.087664        -1.315364        -1.410374
 H         1.642281        -0.663370         0.051084
