19
Iteration:  3952charge 0 multiplicity 1
 C         2.602592        -1.718453        -3.712036
 C         2.517256        -0.338869        -3.187821
 C         2.062800         0.941776        -3.924702
 C         1.076762         0.318359        -3.016645
 O         1.081952         1.067403        -1.745152
 C         2.322574         0.786434        -1.041557
 C         3.171559        -0.317826        -1.753276
 C         1.954415         0.341281         0.424452
 O         2.863641         0.308644         1.229333
 H         3.629042        -1.923216        -3.885489
 H         2.301311        -2.356468        -2.820073
 H         1.890121        -2.064447        -4.534812
 H         2.578912         1.850449        -3.526452
 H         2.028659         0.975991        -4.982833
 H         0.021817        -0.058932        -3.230090
 H         3.054269         1.658796        -1.011285
 H         4.201125        -0.029147        -1.931369
 H         3.312378        -1.321371        -1.283048
 H         0.984125        -0.153893         0.650312
