19
Iteration:  4366
 C         2.352168        -1.750449        -3.730045
 C         2.403023        -0.326775        -3.199339
 C         2.319929         1.039668        -3.944485
 C         1.168846         0.358783        -3.030873
 O         1.123356         0.852798        -1.616502
 C         2.392518         0.675686        -0.962219
 C         3.185507        -0.273127        -1.900481
 C         2.095733         0.194251         0.383436
 O         2.663969         0.609894         1.310478
 H         3.323849        -2.242512        -3.747183
 H         1.906792        -2.385631        -2.916352
 H         1.851494        -1.852890        -4.751685
 H         2.806173         1.872265        -3.507661
 H         2.214178         0.937794        -4.988262
 H         0.116374         0.142272        -3.473057
 H         2.965162         1.573049        -0.961295
 H         4.076636         0.241753        -2.247068
 H         3.465133        -1.358303        -1.482343
 H         1.288604        -0.597368         0.244196
