19
Iteration:  2135
 C         2.471335        -1.794089        -3.719979
 C         2.451615        -0.349441        -3.186345
 C         2.047015         0.798320        -4.065520
 C         1.162517         0.304336        -2.886859
 O         1.217825         1.053874        -1.747352
 C         2.448677         0.804025        -0.955870
 C         3.311691         0.062542        -1.966159
 C         2.037282         0.068455         0.404950
 O         2.567049         0.421720         1.430212
 H         3.435051        -2.180247        -4.182195
 H         2.355307        -2.396237        -2.814909
 H         1.770360        -2.047714        -4.520448
 H         2.336275         1.775069        -3.980854
 H         1.756905         0.577070        -5.074974
 H         0.143197        -0.140902        -3.059619
 H         2.991878         1.728513        -0.709972
 H         4.125665         0.692490        -2.169664
 H         3.694274        -0.890504        -1.471897
 H         1.296537        -0.707235         0.232268
