19
Iteration:  3506
 C         2.617014        -1.685376        -3.830115
 C         2.496604        -0.417674        -3.050518
 C         2.039441         0.794774        -3.945106
 C         1.151961         0.210865        -2.958174
 O         0.990380         0.977186        -1.703895
 C         2.319195         0.908744        -1.042470
 C         3.251728        -0.047854        -1.742690
 C         2.010300         0.362838         0.383739
 O         2.847051         0.208875         1.230952
 H         3.667884        -1.749876        -4.122431
 H         2.177667        -2.378362        -3.177077
 H         1.993994        -1.642881        -4.770535
 H         2.432015         1.863280        -3.788007
 H         2.031642         0.538183        -4.958773
 H         0.147314        -0.123281        -3.266761
 H         2.590993         1.982934        -0.953272
 H         4.225157         0.438385        -1.925521
 H         3.383638        -0.857127        -1.047556
 H         0.943886         0.168350         0.461386
