19
Iteration:  3542charge 0 multiplicity 1
 C         2.753293        -1.780975        -3.775507
 C         2.376731        -0.412634        -3.191177
 C         2.109616         0.951473        -3.900507
 C         1.087874         0.419120        -3.038629
 O         0.951833         0.900392        -1.664240
 C         2.250775         0.802706        -1.016065
 C         3.089898        -0.191012        -1.785704
 C         2.016827         0.346051         0.420713
 O         2.939568         0.323505         1.238911
 H         3.843960        -1.792756        -4.044468
 H         2.896170        -2.512014        -2.973676
 H         2.230165        -2.273787        -4.549838
 H         2.671591         1.722226        -3.597975
 H         1.977494         0.809242        -4.997389
 H         0.219040         0.388106        -3.646654
 H         2.905693         1.691469        -0.924362
 H         4.047922         0.314365        -1.913978
 H         3.349636        -1.110252        -1.214611
 H         0.993719         0.302172         0.768596
