19
Iteration:  1121charge 0 multiplicity 1
 C         2.631433        -1.690885        -3.920114
 C         2.482366        -0.350157        -3.144026
 C         2.054470         0.972517        -3.887027
 C         1.144778         0.281179        -2.976622
 O         1.105592         0.944638        -1.660106
 C         2.331562         0.697794        -1.047783
 C         3.091756        -0.429738        -1.834526
 C         2.009621         0.499750         0.410718
 O         2.837627         0.440403         1.353632
 H         3.600421        -2.011952        -3.910292
 H         1.925753        -2.389422        -3.434199
 H         2.496577        -1.625751        -5.012443
 H         2.526606         1.799577        -3.503658
 H         1.883530         0.867529        -4.991985
 H         0.117195        -0.279745        -3.072625
 H         2.878994         1.631019        -1.155227
 H         4.112631        -0.090945        -1.748702
 H         3.070685        -1.457920        -1.386402
 H         0.973910         0.376769         0.575177
