19
Iteration:  1781
 C         2.745931        -1.666781        -3.969488
 C         2.525055        -0.415748        -3.083791
 C         2.126092         0.975668        -3.797938
 C         1.109929         0.288937        -3.021168
 O         0.941738         0.955450        -1.733564
 C         2.175658         0.704009        -1.021564
 C         3.025503        -0.449448        -1.637400
 C         2.018091         0.535366         0.461588
 O         2.977943         0.429586         1.141390
 H         3.925506        -1.723691        -4.201704
 H         2.676590        -2.560353        -3.244635
 H         2.070239        -1.723050        -4.870922
 H         2.651237         1.914709        -3.360024
 H         2.059727         0.969503        -4.843300
 H         0.163539        -0.141150        -3.450970
 H         2.767133         1.628568        -1.111781
 H         4.142310        -0.327788        -1.561029
 H         2.699561        -1.455002        -1.314831
 H         1.039148         0.338287         0.926067
