19
Iteration:  2865charge 0 multiplicity 1
 C         2.609987        -1.592230        -4.162722
 C         2.414784        -0.500734        -3.099698
 C         2.296884         0.959447        -3.690234
 C         1.151485         0.330846        -3.033009
 O         0.899825         0.738945        -1.699680
 C         2.251607         0.697765        -1.022130
 C         3.018402        -0.464012        -1.647244
 C         2.160948         0.405038         0.391506
 O         2.903119         0.716203         1.297837
 H         3.552492        -1.431666        -4.537962
 H         2.510943        -2.602915        -3.720851
 H         1.815111        -1.636389        -4.900327
 H         2.752322         1.808986        -3.143835
 H         2.211209         1.062097        -4.772642
 H         0.196651         0.465045        -3.518324
 H         2.677082         1.680419        -1.063462
 H         4.034481        -0.188174        -1.646543
 H         2.946610        -1.419270        -1.104337
 H         1.231977        -0.311823         0.662965
