19
Iteration:   134charge 0 multiplicity 1
 C         2.537031        -1.666977        -4.076282
 C         2.476165        -0.379906        -3.290726
 C         2.265774         0.952161        -3.817188
 C         1.205450         0.283675        -2.941364
 O         1.052317         0.789137        -1.577473
 C         2.390201         0.614851        -0.961219
 C         3.132037        -0.490341        -1.883445
 C         1.979704         0.362309         0.465890
 O         2.687110         0.809109         1.378737
 H         2.405292        -2.516350        -3.489711
 H         1.828263        -1.631171        -4.932167
 H         3.511561        -1.794602        -4.501742
 H         2.866670         1.735583        -3.288775
 H         2.086740         1.369407        -4.800693
 H         0.302812        -0.036225        -3.496704
 H         2.946679         1.605132        -0.831290
 H         4.225320        -0.339178        -1.855820
 H         2.811561        -1.430859        -1.481797
 H         0.971927         0.103842         0.578811
