19
Iteration:  4120charge 0 multiplicity 1
 C         2.612805        -1.598069        -4.055590
 C         2.391949        -0.439442        -3.095465
 C         2.264945         0.842686        -3.792663
 C         1.077040         0.340109        -2.976034
 O         0.962403         0.976531        -1.707204
 C         2.219289         0.694799        -0.989438
 C         3.099636        -0.499048        -1.748936
 C         2.049477         0.416543         0.487832
 O         2.924086         0.560214         1.243448
 H         3.737885        -1.540107        -4.343393
 H         2.450949        -2.575264        -3.577850
 H         1.990609        -1.684942        -4.919585
 H         2.897294         1.742942        -3.338757
 H         2.455892         0.841155        -4.851125
 H         0.130081         0.188997        -3.530301
 H         2.989178         1.497357        -0.921056
 H         4.237682        -0.364220        -1.788009
 H         2.954493        -1.528191        -1.370909
 H         1.010279         0.489253         0.767416
