19
Iteration:  2646
 C         2.493127        -1.763996        -3.924016
 C         2.454958        -0.346036        -3.025473
 C         2.127289         0.764527        -3.899165
 C         1.154850         0.198220        -2.944741
 O         1.098922         1.090409        -1.761062
 C         2.347652         0.946815        -1.028300
 C         3.182758        -0.071219        -1.739894
 C         2.077855         0.238509         0.332393
 O         2.757561         0.346409         1.349170
 H         3.318866        -1.895334        -4.489076
 H         2.417389        -2.664986        -3.339048
 H         1.778195        -1.718296        -4.741399
 H         2.555653         1.682831        -3.575741
 H         2.256901         0.408558        -5.022245
 H         0.208768        -0.340413        -3.191165
 H         2.905386         1.851197        -0.904284
 H         4.171664         0.252630        -1.740168
 H         3.170393        -1.082756        -1.393965
 H         1.077601        -0.333621         0.402130
