19
Iteration:  3770charge 0 multiplicity 1
 C         2.429714        -1.658705        -3.880887
 C         2.509717        -0.308485        -3.232628
 C         2.135347         1.014130        -3.898210
 C         1.185746         0.320808        -2.939681
 O         1.098526         0.789873        -1.629103
 C         2.360118         0.640213        -1.000422
 C         3.258902        -0.400354        -1.818666
 C         2.087362         0.227464         0.347871
 O         2.663912         0.730473         1.364613
 H         3.466748        -2.026552        -4.127174
 H         1.889084        -2.509763        -3.536047
 H         2.007334        -1.502572        -4.884993
 H         2.854832         1.897359        -3.809590
 H         1.865253         1.047516        -4.887332
 H         0.159620        -0.065678        -3.243940
 H         2.995031         1.497749        -0.984929
 H         4.311859        -0.073962        -1.564797
 H         3.163542        -1.436646        -1.510495
 H         1.110109        -0.423545         0.519473
