19
Iteration:   947charge 0 multiplicity 1
 C         2.674531        -1.696887        -3.800818
 C         2.411562        -0.382253        -3.171577
 C         2.111607         0.868589        -3.879903
 C         1.069941         0.378623        -2.997597
 O         1.146578         1.013266        -1.749744
 C         2.366288         0.760697        -1.027838
 C         3.101114        -0.376932        -1.750816
 C         1.965983         0.435287         0.384968
 O         2.811206         0.332797         1.270563
 H         1.903783        -1.888002        -4.579947
 H         3.451211        -1.531754        -4.613801
 H         2.890128        -2.451860        -3.114129
 H         2.522832         1.677909        -3.293749
 H         2.063700         0.895066        -4.887674
 H         0.099260         0.082153        -3.091500
 H         3.013787         1.686588        -1.055700
 H         4.144342        -0.118475        -1.632071
 H         2.937984        -1.335884        -1.128484
 H         0.863817         0.342742         0.641616
