19
Iteration:   673
 C         2.545967        -1.797824        -3.784135
 C         2.468209        -0.429632        -3.120796
 C         2.452309         0.994221        -3.771688
 C         1.257260         0.439039        -3.062815
 O         0.839078         0.847849        -1.757253
 C         2.188758         0.910210        -1.043599
 C         2.922551        -0.276651        -1.677310
 C         2.061073         0.396951         0.393387
 O         2.968050         0.328288         1.155884
 H         1.854546        -2.523330        -3.163352
 H         2.290870        -1.658987        -4.935727
 H         3.474796        -2.328654        -3.677756
 H         3.167913         1.766553        -3.323575
 H         2.461716         0.951643        -4.861773
 H         0.387849         0.246513        -3.662089
 H         2.563797         1.954219        -1.179048
 H         4.002471        -0.039318        -1.611300
 H         2.749267        -1.220618        -1.094761
 H         1.004209        -0.061633         0.588803
