19
Iteration:  1267charge 0 multiplicity 1
 C         2.633861        -1.603165        -4.154442
 C         2.391601        -0.470481        -3.115642
 C         2.179174         0.914104        -3.793027
 C         1.125152         0.309527        -2.938095
 O         1.058997         0.910427        -1.685941
 C         2.310635         0.556847        -0.993599
 C         3.070913        -0.596600        -1.825747
 C         2.005623         0.607581         0.535475
 O         2.857986         0.641745         1.345448
 H         3.573838        -1.102766        -4.691071
 H         2.889138        -2.610917        -3.792593
 H         1.835471        -1.674883        -4.827577
 H         2.696465         1.770677        -3.400939
 H         2.215981         0.917875        -4.946747
 H         0.200172         0.001945        -3.243824
 H         3.127357         1.282702        -1.066148
 H         4.139017        -0.274829        -1.979556
 H         2.797925        -1.567694        -1.266885
 H         0.873282         0.553846         0.752942
