19
Iteration:   534charge 0 multiplicity 1
 C         2.496305        -1.672531        -3.976763
 C         2.507171        -0.337023        -3.247309
 C         2.262136         0.904327        -3.877624
 C         1.160133         0.259711        -3.018815
 O         1.046393         0.723928        -1.667947
 C         2.421025         0.719204        -1.020235
 C         3.202716        -0.321945        -1.863211
 C         2.042540         0.802849         0.484957
 O         2.596271         0.291893         1.483364
 H         2.116665        -2.462237        -3.336065
 H         1.975439        -1.521854        -4.941763
 H         3.530930        -2.116741        -4.389044
 H         3.012997         1.669415        -3.470691
 H         2.084644         0.950625        -4.964045
 H         0.341912        -0.181304        -3.491973
 H         2.828082         1.768079        -1.016256
 H         4.234943        -0.082762        -1.863801
 H         3.048499        -1.306631        -1.397066
 H         1.059566         1.505148         0.720923
