19
Iteration:   112
 C         2.536858        -1.685148        -4.027417
 C         2.421593        -0.416566        -3.125498
 C         2.285927         1.050779        -3.705876
 C         1.160697         0.355844        -3.034623
 O         1.011037         0.659871        -1.660101
 C         2.323758         0.700263        -1.089763
 C         3.164016        -0.481106        -1.738537
 C         2.015935         0.507658         0.353361
 O         2.767330         0.638309         1.372900
 H         2.340707        -2.522005        -3.486553
 H         1.906746        -1.603992        -4.941090
 H         3.529740        -1.889463        -4.373958
 H         2.663420         2.059738        -3.416749
 H         2.379215         0.962908        -4.793410
 H         0.176371         0.277342        -3.550996
 H         2.944559         1.634315        -1.232229
 H         4.157578        -0.040481        -1.935150
 H         3.096449        -1.377015        -1.129654
 H         1.068354         0.085733         0.543775
