19
Iteration:  3912charge 0 multiplicity 1
 C         2.518986        -1.759897        -3.966813
 C         2.396977        -0.459564        -3.101982
 C         2.221924         0.729061        -3.989905
 C         1.166868         0.397278        -2.940627
 O         1.024240         1.003699        -1.605260
 C         2.266053         0.955684        -1.011175
 C         3.314633        -0.147980        -1.854891
 C         2.043907         0.344703         0.453648
 O         2.749513         0.300415         1.383744
 H         3.408828        -1.920439        -4.661721
 H         2.388813        -2.570017        -3.288504
 H         1.574342        -1.831679        -4.462183
 H         2.941961         1.509876        -4.025347
 H         2.083117         0.451802        -5.102906
 H         0.180307         0.173737        -3.403128
 H         2.670348         1.958177        -1.008709
 H         4.192736         0.558900        -1.930816
 H         3.624460        -0.937140        -1.214664
 H         1.026409        -0.228761         0.256384
