19
Iteration:  4902
 C         2.364806        -1.718978        -3.884695
 C         2.426967        -0.368618        -3.128752
 C         2.278717         0.884667        -4.010699
 C         1.194679         0.382806        -2.988360
 O         1.099544         0.911241        -1.706889
 C         2.277466         0.747192        -0.949422
 C         3.226801        -0.282332        -1.738456
 C         2.090983         0.201094         0.416319
 O         2.731995         0.577272         1.297371
 H         3.357537        -2.092538        -3.752225
 H         1.677165        -2.378064        -3.265416
 H         1.974481        -1.554198        -4.867722
 H         2.968116         1.727883        -3.600588
 H         2.216976         0.847230        -5.123151
 H         0.138979         0.180377        -3.209370
 H         2.788742         1.657595        -1.003907
 H         4.168115         0.274656        -1.835425
 H         3.435718        -1.279302        -1.276728
 H         1.269602        -0.602668         0.555704
