19
Iteration:  1034charge 0 multiplicity 1
 C         2.482266        -1.774388        -3.626271
 C         2.433817        -0.382375        -3.156983
 C         2.288154         1.078855        -3.830587
 C         1.208475         0.383172        -3.009521
 O         0.975755         0.842753        -1.733104
 C         2.233758         0.745326        -1.044533
 C         3.195454        -0.185013        -1.806638
 C         1.988123         0.398855         0.396992
 O         2.906960         0.286971         1.122687
 H         2.988559        -1.917488        -4.651548
 H         3.048275        -2.442914        -2.928700
 H         1.441661        -2.234426        -3.579214
 H         2.785067         1.993861        -3.629486
 H         2.014775         1.104381        -4.853741
 H         0.361550         0.033712        -3.639884
 H         2.701299         1.693213        -0.868902
 H         4.235399         0.172931        -1.910403
 H         3.118826        -1.265176        -1.304258
 H         0.849613         0.349981         0.715318
