19
Iteration:  4732charge 0 multiplicity 1
 C         2.393279        -1.759611        -3.778991
 C         2.412266        -0.344109        -3.134246
 C         2.283245         0.942783        -3.899076
 C         1.122712         0.317370        -3.005965
 O         1.102583         0.947114        -1.681393
 C         2.390494         0.880699        -1.091751
 C         3.180007        -0.274110        -1.861720
 C         2.230454         0.185662         0.333342
 O         2.614956         0.513129         1.401100
 H         3.436646        -2.244909        -3.989534
 H         1.849877        -2.443506        -3.033429
 H         1.969973        -1.874813        -4.813738
 H         2.804629         1.820000        -3.508105
 H         2.328262         0.816148        -4.958857
 H         0.198782         0.001894        -3.402267
 H         2.868975         1.859321        -1.036345
 H         4.319604        -0.196613        -1.931825
 H         2.843788        -1.152936        -1.254273
 H         1.372776        -0.580482         0.337453
