19
Iteration:  1813
 C         2.714427        -1.497608        -4.072718
 C         2.404656        -0.469971        -3.013046
 C         2.282492         0.833124        -3.732217
 C         1.114858         0.256213        -3.034171
 O         0.913017         0.757424        -1.664137
 C         2.190652         0.807249        -1.086642
 C         2.934824        -0.398903        -1.603503
 C         2.093969         0.649143         0.441145
 O         2.979833         0.436366         1.161560
 H         3.889630        -1.542029        -4.240212
 H         2.527117        -2.597486        -3.716187
 H         2.360675        -1.405541        -5.102369
 H         3.037854         1.668207        -3.435590
 H         2.269138         0.914909        -4.746593
 H         0.105706        -0.010811        -3.470787
 H         2.777896         1.782095        -1.299369
 H         4.049422        -0.487653        -1.523312
 H         2.558307        -1.339909        -1.156124
 H         0.930503         0.504427         0.609288
