19
Iteration:  4022charge 0 multiplicity 1
 C         2.512197        -1.712663        -3.932560
 C         2.454942        -0.452183        -3.188794
 C         2.328867         0.909296        -3.787114
 C         1.136349         0.317531        -2.951926
 O         0.965201         0.865448        -1.707543
 C         2.189333         0.762055        -0.996866
 C         3.116367        -0.281505        -1.796717
 C         1.994639         0.557067         0.499815
 O         2.946559         0.345426         1.200748
 H         3.587084        -2.069507        -3.835607
 H         1.902561        -2.478990        -3.500312
 H         2.185213        -1.684398        -4.939722
 H         2.993004         1.707537        -3.337016
 H         2.147900         1.009839        -4.880098
 H         0.262205         0.156034        -3.492462
 H         2.698230         1.763865        -1.082539
 H         4.021082         0.367906        -1.906496
 H         3.536934        -1.104635        -1.275584
 H         0.909832         0.496465         0.867177
