19
Iteration:  2801
 C         2.549354        -1.671633        -3.947062
 C         2.441984        -0.369225        -3.300205
 C         2.175556         1.032033        -3.999580
 C         1.155601         0.359723        -2.967994
 O         1.048011         0.753406        -1.583888
 C         2.440214         0.587917        -0.970350
 C         3.144753        -0.448356        -1.982461
 C         2.159411         0.337897         0.516252
 O         2.636649         0.768788         1.508378
 H         3.627056        -1.881893        -4.164410
 H         2.182248        -2.539468        -3.283710
 H         1.984587        -1.761886        -4.897307
 H         2.648234         2.057841        -3.718522
 H         1.827468         0.995367        -5.030659
 H         0.164048         0.146656        -3.379084
 H         3.047671         1.503567        -0.943987
 H         4.182029        -0.232000        -1.894333
 H         2.923448        -1.418301        -1.573562
 H         1.280002        -0.415333         0.582130
