19
Iteration:   703
 C         2.455242        -1.712428        -3.900686
 C         2.474716        -0.437063        -3.092099
 C         2.363549         0.959179        -3.821598
 C         1.278292         0.430283        -3.056298
 O         0.958079         0.794371        -1.727838
 C         2.311477         0.677486        -0.967958
 C         3.121754        -0.400866        -1.789846
 C         1.908114         0.526998         0.455817
 O         2.848863         0.473632         1.287190
 H         1.614155        -2.369526        -3.709058
 H         2.299353        -1.353590        -4.927818
 H         3.479343        -2.171875        -4.110907
 H         2.855900         1.911034        -3.504030
 H         2.269629         0.875962        -4.879768
 H         0.380749         0.177335        -3.494527
 H         2.722759         1.694641        -1.180830
 H         4.144681         0.029574        -1.888124
 H         3.128675        -1.320868        -1.330763
 H         0.862347         0.452017         0.813743
