19
Iteration:  4849charge 0 multiplicity 1
 C         2.486543        -1.787067        -3.841423
 C         2.366983        -0.433633        -3.108991
 C         2.225609         0.879448        -3.953860
 C         1.150971         0.513258        -3.051347
 O         1.096784         0.913675        -1.620265
 C         2.476185         0.842143        -1.063805
 C         3.177796        -0.300642        -1.859324
 C         2.116086         0.250784         0.369649
 O         2.616000         0.507494         1.436969
 H         3.438130        -1.910902        -4.260142
 H         2.288874        -2.520427        -3.046340
 H         1.769765        -1.681244        -4.583563
 H         2.931231         1.802919        -3.819857
 H         1.925249         0.560629        -5.000855
 H         0.122074         0.324107        -3.327318
 H         3.042538         1.853432        -1.156306
 H         4.305056        -0.155336        -2.018341
 H         2.952823        -1.232403        -1.281462
 H         1.439433        -0.602406         0.205999
