19
Iteration:  3529
 C         2.776613        -1.773699        -3.755862
 C         2.348507        -0.433130        -3.130328
 C         2.216571         0.924573        -3.909669
 C         1.066797         0.320634        -2.952401
 O         0.986068         0.970950        -1.694425
 C         2.215045         0.792317        -1.020264
 C         3.125588        -0.153995        -1.889405
 C         2.032959         0.422735         0.452883
 O         2.897804         0.266452         1.231749
 H         3.784645        -1.645484        -4.184374
 H         2.554670        -2.508230        -3.013097
 H         2.094624        -1.956965        -4.614087
 H         2.695628         1.852303        -3.590972
 H         1.965055         0.976238        -4.950217
 H         0.067906        -0.110356        -3.082939
 H         2.539128         1.857595        -1.038469
 H         4.041025         0.345949        -2.221809
 H         3.337695        -1.067954        -1.341913
 H         1.017861         0.001900         0.561270
