19
Iteration:   962charge 0 multiplicity 1
 C         2.608382        -1.705585        -3.854704
 C         2.406317        -0.421674        -3.047686
 C         2.236581         0.922587        -3.877088
 C         1.133826         0.304995        -2.951896
 O         1.048952         1.031702        -1.730882
 C         2.271004         0.776414        -1.030707
 C         3.124359        -0.286961        -1.778602
 C         1.984921         0.422558         0.424163
 O         2.855866         0.311002         1.223764
 H         1.828761        -1.806502        -4.714134
 H         3.659165        -1.849495        -4.178643
 H         2.506384        -2.548996        -3.092428
 H         2.770005         1.844583        -3.687095
 H         2.145995         0.778987        -5.012357
 H         0.177347        -0.071825        -3.482067
 H         2.832839         1.741000        -0.926814
 H         4.153496        -0.021573        -1.972997
 H         3.078511        -1.241675        -1.353572
 H         0.812116         0.286868         0.594059
