19
Iteration:  1515
 C         2.536960        -1.692208        -3.676758
 C         2.387982        -0.394913        -3.118373
 C         2.034121         0.853060        -3.908513
 C         1.038564         0.339334        -2.872501
 O         1.167670         1.041167        -1.690158
 C         2.508780         0.797297        -1.055347
 C         3.363535        -0.108953        -1.936708
 C         2.202895         0.011361         0.247359
 O         2.446851         0.510035         1.311086
 H         3.511434        -1.773986        -4.115226
 H         2.336566        -2.490582        -2.873251
 H         1.897246        -1.809493        -4.579648
 H         2.516309         1.787867        -3.492356
 H         1.768482         0.749056        -4.942512
 H         0.003695         0.004995        -2.992921
 H         2.924602         1.722420        -0.733295
 H         4.373671         0.225567        -2.271537
 H         3.713367        -1.084978        -1.405145
 H         1.863690        -1.058182        -0.017996
