19
Iteration:  4284charge 0 multiplicity 1
 C         2.539180        -1.734725        -4.004029
 C         2.382575        -0.436299        -3.131024
 C         2.102523         0.836489        -3.936417
 C         1.138061         0.416646        -2.901656
 O         1.245188         1.064446        -1.627752
 C         2.412834         0.635588        -0.952262
 C         3.172147        -0.337635        -1.832210
 C         2.023298         0.178527         0.363799
 O         2.640781         0.669954         1.366087
 H         3.482233        -1.663761        -4.654399
 H         2.464009        -2.669303        -3.461325
 H         1.694946        -1.797633        -4.660768
 H         2.725369         1.657155        -3.599128
 H         1.941536         0.851366        -5.108619
 H         0.068386         0.086412        -3.058902
 H         3.171498         1.490715        -0.954607
 H         4.262960         0.011520        -1.973557
 H         3.316704        -1.303491        -1.404254
 H         1.073888        -0.362283         0.457433
