19
Iteration:  3405
 C         2.705796        -1.727446        -3.640229
 C         2.492283        -0.348642        -2.986919
 C         2.055483         0.760510        -3.979927
 C         1.130773         0.280030        -2.935865
 O         0.906189         1.060196        -1.756013
 C         2.241048         0.998255        -1.026376
 C         3.285593        -0.001006        -1.732717
 C         2.004437         0.500020         0.351574
 O         2.893475        -0.096382         1.039681
 H         3.668332        -1.820853        -4.139549
 H         2.785449        -2.493769        -2.859485
 H         1.735441        -1.939019        -4.156445
 H         2.478341         1.738774        -3.897862
 H         1.803853         0.409644        -5.082400
 H         0.228616        -0.282115        -3.170090
 H         2.684824         2.049708        -0.978756
 H         4.252401         0.463575        -1.888174
 H         3.338176        -0.844518        -1.034088
 H         0.870661         0.489287         0.722924
