19
Iteration:  3778
 C         2.468991        -1.682887        -3.952611
 C         2.494411        -0.363050        -3.152356
 C         2.133682         0.981009        -3.941068
 C         1.197286         0.341099        -2.912511
 O         1.066193         0.850246        -1.620323
 C         2.394510         0.644528        -1.002533
 C         3.266308        -0.358498        -1.792956
 C         2.097323         0.223950         0.399460
 O         2.641664         0.691440         1.305068
 H         3.392455        -2.201280        -4.075692
 H         1.769466        -2.399455        -3.450708
 H         2.033007        -1.327588        -4.933883
 H         2.733628         1.833664        -3.508595
 H         1.733082         1.041175        -4.997294
 H         0.309246        -0.070761        -3.378981
 H         2.886084         1.644504        -0.944043
 H         4.318294        -0.068711        -1.871976
 H         3.244011        -1.370973        -1.376104
 H         1.250436        -0.432480         0.502404
