19
Iteration:  3490
 C         2.584132        -1.746813        -3.817661
 C         2.551880        -0.302408        -3.044085
 C         2.014584         0.834657        -4.029779
 C         1.146491         0.243924        -2.889159
 O         1.100690         0.907486        -1.739302
 C         2.243992         0.984094        -0.979535
 C         3.293279        -0.038575        -1.726185
 C         1.995211         0.409778         0.416497
 O         2.789048         0.168230         1.200861
 H         3.590617        -2.105222        -4.258331
 H         2.003447        -2.630914        -3.277652
 H         2.016421        -1.564093        -4.708833
 H         2.195377         1.883269        -4.014488
 H         1.582194         0.431867        -5.060105
 H         0.410966        -0.535055        -3.075768
 H         2.909849         1.834944        -0.926151
 H         4.230710         0.548255        -1.810935
 H         3.656715        -1.004505        -1.236566
 H         0.842947         0.054219         0.484522
