19
Iteration:  1779
 C         2.734032        -1.658274        -3.955892
 C         2.522550        -0.409694        -3.105617
 C         2.133572         0.981772        -3.810235
 C         1.103278         0.300101        -3.025588
 O         0.952310         0.945109        -1.733671
 C         2.172927         0.677589        -1.027127
 C         3.022348        -0.430918        -1.649197
 C         2.040996         0.531081         0.480794
 O         2.962282         0.429134         1.148264
 H         3.879667        -1.660026        -4.141496
 H         2.662451        -2.552740        -3.182046
 H         2.097594        -1.764031        -4.802071
 H         2.641036         1.832373        -3.370252
 H         2.065933         0.876430        -4.902924
 H         0.224113        -0.125509        -3.456532
 H         2.784603         1.649193        -1.141882
 H         4.108240        -0.267244        -1.548595
 H         2.721914        -1.439977        -1.287108
 H         1.049186         0.308672         0.967652
