19
Iteration:  2782
 C         2.476370        -1.750456        -3.983485
 C         2.423415        -0.389394        -3.283051
 C         2.158933         0.986508        -3.870887
 C         1.135638         0.381416        -2.940877
 O         1.144033         0.754487        -1.597219
 C         2.431677         0.696721        -1.076887
 C         3.193572        -0.286052        -1.906757
 C         2.148939         0.246411         0.489721
 O         2.586020         0.744429         1.462677
 H         3.512601        -2.241475        -4.014415
 H         2.011268        -2.434723        -3.314711
 H         2.184329        -1.780707        -5.020256
 H         2.852723         1.674649        -3.429894
 H         1.970802         1.157907        -4.950951
 H         0.145861         0.006342        -3.297059
 H         2.846887         1.751619        -1.010053
 H         4.232918        -0.042033        -2.288233
 H         3.192662        -1.340972        -1.565833
 H         1.367887        -0.603333         0.581499
