19
Iteration:  4921charge 0 multiplicity 1
 C         2.397470        -1.739073        -3.879349
 C         2.512008        -0.388306        -3.132328
 C         2.316237         0.855985        -3.916962
 C         1.209726         0.410988        -3.020445
 O         1.006159         0.849493        -1.651810
 C         2.381027         0.858277        -1.064638
 C         3.111001        -0.260655        -1.836977
 C         2.127768         0.318715         0.431151
 O         2.740239         0.505937         1.404580
 H         3.443371        -2.210537        -4.037832
 H         1.758885        -2.451522        -3.296217
 H         1.946174        -1.418858        -4.892381
 H         2.813912         1.804946        -3.784547
 H         1.931009         0.683669        -4.926591
 H         0.200063        -0.029364        -3.415926
 H         2.778801         1.869687        -0.896111
 H         4.154101        -0.204317        -1.955198
 H         2.791752        -1.293465        -1.492874
 H         1.207388        -0.360364         0.357224
