19
Iteration:   523charge 0 multiplicity 1
 C         2.601158        -1.690842        -3.981207
 C         2.466025        -0.420465        -3.150796
 C         2.332291         0.922136        -3.907033
 C         1.137209         0.347604        -3.023566
 O         0.988732         0.706822        -1.657492
 C         2.380979         0.764312        -1.037340
 C         3.119342        -0.288887        -1.791056
 C         2.122106         0.785707         0.483122
 O         2.635692         0.254359         1.402226
 H         2.058836        -2.468266        -3.444682
 H         1.930220        -1.536436        -4.845327
 H         3.693041        -2.094993        -4.215998
 H         2.683136         1.923871        -3.508228
 H         2.146976         0.844717        -4.999158
 H         0.237783         0.036211        -3.463620
 H         2.862462         1.699713        -1.410425
 H         4.169069        -0.275915        -1.766929
 H         2.858727        -1.199455        -1.264630
 H         1.083579         1.385403         0.567017
