19
Iteration:  1315
 C         2.541949        -1.668985        -4.020076
 C         2.479048        -0.415283        -3.167338
 C         2.285783         0.942796        -3.841832
 C         1.177803         0.307705        -2.991829
 O         0.982282         0.700913        -1.638976
 C         2.280667         0.865796        -1.059545
 C         3.071862        -0.404507        -1.787018
 C         2.055787         0.594386         0.460731
 O         2.896679         0.449656         1.368055
 H         3.538339        -1.991191        -4.228552
 H         2.010585        -2.415038        -3.423659
 H         1.886613        -1.506096        -4.944276
 H         2.856924         1.880890        -3.584288
 H         2.008777         1.043699        -4.824806
 H         0.159620         0.037907        -3.510655
 H         2.757959         1.794034        -1.234838
 H         4.137043        -0.216656        -1.694802
 H         2.602406        -1.317615        -1.234844
 H         0.897399         0.353964         0.565702
