19
Iteration:  3258charge 0 multiplicity 1
 C         2.727293        -1.731343        -3.655917
 C         2.506532        -0.387289        -2.968428
 C         1.991716         0.672210        -3.978938
 C         1.155208         0.273085        -2.859876
 O         0.962084         1.096488        -1.697348
 C         2.294816         0.988920        -1.042811
 C         3.273971         0.112379        -1.718983
 C         2.012053         0.569528         0.351713
 O         2.773241        -0.189911         0.957797
 H         3.495325        -1.600070        -4.474869
 H         2.980117        -2.546602        -2.904738
 H         1.755767        -2.109910        -4.091658
 H         2.347538         1.660034        -4.064401
 H         1.695352         0.183765        -4.963386
 H         0.170987        -0.168964        -3.182393
 H         2.807938         2.028977        -1.075945
 H         4.245563         0.772429        -1.889149
 H         3.743132        -0.771690        -1.151101
 H         1.075411         0.805059         0.762129
