19
Iteration:  1304charge 0 multiplicity 1
 C         2.497308        -1.631774        -4.059571
 C         2.490940        -0.438305        -3.164814
 C         2.219501         0.972147        -3.858198
 C         1.229894         0.266187        -2.979824
 O         1.016463         0.747241        -1.628983
 C         2.357484         0.814948        -1.045173
 C         3.033779        -0.425558        -1.707731
 C         2.059986         0.624105         0.484414
 O         2.838313         0.492154         1.332638
 H         3.460000        -1.698746        -4.524985
 H         2.252472        -2.633824        -3.697971
 H         1.931671        -1.411715        -5.043776
 H         2.667205         1.888424        -3.385992
 H         2.079572         0.841675        -4.865175
 H         0.291990        -0.230188        -3.506835
 H         2.744392         1.738964        -1.333918
 H         4.120070        -0.563523        -1.668766
 H         2.831083        -1.507358        -1.314532
 H         0.908853         0.308782         0.724739
