19
Iteration:   210
 C         2.483883        -1.688417        -4.081977
 C         2.362463        -0.459808        -3.221440
 C         2.239214         1.058299        -3.723019
 C         1.208914         0.384960        -2.874511
 O         1.115767         0.770393        -1.547114
 C         2.547439         0.618234        -1.075900
 C         3.182960        -0.539355        -1.869079
 C         2.337867         0.194749         0.371780
 O         2.278745         0.959120         1.324022
 H         2.027017        -2.606307        -3.321811
 H         1.923336        -1.666985        -5.077840
 H         3.496774        -1.979154        -4.332754
 H         3.037499         1.743711        -3.290474
 H         1.886917         1.430013        -4.711019
 H         0.301016         0.490915        -3.494118
 H         3.012074         1.666695        -1.149598
 H         4.275505        -0.480010        -1.891124
 H         2.865203        -1.399519        -1.369145
 H         2.121459        -0.941116         0.564872
