19
Iteration:  4135charge 0 multiplicity 1
 C         2.578267        -1.642820        -4.001204
 C         2.391553        -0.430700        -3.156245
 C         2.313399         0.956604        -3.840795
 C         1.165105         0.352084        -2.998411
 O         1.046376         0.841718        -1.669288
 C         2.308497         0.718740        -1.049848
 C         2.939289        -0.419073        -1.694410
 C         2.044168         0.448346         0.453022
 O         2.912981         0.550032         1.280926
 H         3.650152        -1.746717        -4.258153
 H         2.281362        -2.641287        -3.547475
 H         1.923393        -1.526997        -4.914491
 H         2.796049         1.776614        -3.404075
 H         1.992421         0.887341        -4.926087
 H         0.153839         0.000520        -3.325823
 H         2.784368         1.708271        -1.167834
 H         3.998823        -0.278670        -1.614696
 H         2.730119        -1.362385        -1.124471
 H         1.087635        -0.136432         0.614072
