19
Iteration:  2030charge 0 multiplicity 1
 C         2.470492        -1.757115        -3.837426
 C         2.475102        -0.408807        -3.174457
 C         2.067311         0.841873        -4.047343
 C         1.172681         0.311294        -2.880855
 O         1.170375         1.051672        -1.656055
 C         2.366243         0.730793        -0.927695
 C         3.345740        -0.013084        -1.912602
 C         2.030757         0.052227         0.385059
 O         2.596634         0.542328         1.357989
 H         3.495827        -1.921639        -4.076216
 H         2.240060        -2.614631        -3.099773
 H         1.776963        -1.916079        -4.600108
 H         2.651759         1.722514        -4.069310
 H         1.558402         0.586578        -5.071158
 H         0.223831        -0.194259        -3.145374
 H         2.955298         1.572967        -0.638396
 H         4.212354         0.629648        -2.213349
 H         3.732633        -0.880429        -1.422376
 H         1.363457        -0.821782         0.513831
