19
Iteration:  1374
 C         2.570105        -1.793468        -3.701751
 C         2.470975        -0.378331        -3.064719
 C         2.320236         0.960631        -3.936437
 C         1.158377         0.367603        -3.094964
 O         0.881119         0.923558        -1.725230
 C         2.147827         0.861231        -0.963683
 C         3.026213        -0.122947        -1.705955
 C         2.071288         0.337934         0.367129
 O         3.036745         0.265645         1.124621
 H         3.559217        -2.195587        -3.815975
 H         1.957664        -2.535533        -3.141215
 H         2.267787        -1.800219        -4.715734
 H         2.686322         1.847900        -3.495275
 H         2.088780         0.739278        -5.061481
 H         0.317124        -0.046224        -3.515336
 H         2.746146         1.752484        -0.918792
 H         4.072465         0.168425        -1.540715
 H         3.029785        -0.973473        -1.138547
 H         1.036665        -0.034442         0.808711
