19
Iteration:  2165
 C         2.617061        -1.824907        -3.628165
 C         2.412599        -0.395889        -3.164928
 C         1.975803         0.887577        -4.083881
 C         1.146700         0.367395        -2.919513
 O         1.115393         1.096816        -1.746643
 C         2.478667         0.868667        -1.047933
 C         3.275387        -0.057188        -1.984989
 C         2.101812         0.110815         0.354504
 O         2.573342         0.331658         1.501989
 H         3.618799        -2.014934        -4.176252
 H         2.480941        -2.388190        -2.735119
 H         1.749437        -2.255371        -4.262637
 H         2.657881         1.805616        -4.027830
 H         1.631225         0.534458        -5.024506
 H         0.099822         0.120705        -3.164301
 H         3.129675         1.759403        -0.854526
 H         4.270585         0.420533        -2.168077
 H         3.579820        -0.947995        -1.402812
 H         1.285085        -0.618646         0.094356
