19
Iteration:  1598charge 0 multiplicity 1
 C         2.399688        -1.715795        -3.831102
 C         2.555519        -0.338615        -3.130796
 C         1.970238         0.849601        -3.879228
 C         1.204867         0.197643        -2.812000
 O         1.214739         1.010822        -1.673892
 C         2.460296         0.791966        -1.018563
 C         3.454980        -0.044115        -1.946575
 C         2.096249         0.057264         0.230138
 O         2.443311         0.545094         1.352219
 H         3.222323        -2.038464        -4.468429
 H         2.252740        -2.539074        -3.191905
 H         1.486275        -1.653815        -4.532739
 H         2.393705         1.811380        -3.783207
 H         1.604044         0.662537        -4.975816
 H         0.339816        -0.408593        -2.721568
 H         2.809354         1.849267        -0.709342
 H         4.449451         0.425042        -2.042171
 H         3.476083        -0.985112        -1.409160
 H         1.362098        -0.841548         0.301121
