19
Iteration:  1271
 C         2.633211        -1.568117        -4.143275
 C         2.405448        -0.431113        -3.130936
 C         2.175260         0.868614        -3.764396
 C         1.140714         0.281953        -2.955748
 O         1.069253         0.921601        -1.686740
 C         2.312207         0.554248        -0.994051
 C         3.083727        -0.604087        -1.807897
 C         1.975220         0.612769         0.495140
 O         2.871756         0.633261         1.355294
 H         3.503793        -1.248985        -4.662853
 H         2.862029        -2.581171        -3.837245
 H         1.717829        -1.628599        -4.815619
 H         2.629167         1.785772        -3.400947
 H         2.143165         0.877275        -4.839399
 H         0.073755         0.048985        -3.278720
 H         3.086295         1.301911        -1.118136
 H         4.119533        -0.279816        -1.953833
 H         2.887120        -1.587545        -1.310165
 H         0.839387         0.607674         0.802570
