19
Iteration:   345
 C         2.491302        -1.709894        -3.942600
 C         2.386580        -0.383192        -3.201139
 C         2.199979         0.903969        -4.030430
 C         1.165482         0.344612        -3.007835
 O         1.241595         1.017987        -1.611243
 C         2.423809         0.603898        -0.973855
 C         3.141889        -0.398767        -1.890356
 C         2.124229         0.163228         0.477934
 O         2.500561         0.751688         1.484461
 H         2.415316        -2.579346        -3.307991
 H         1.904797        -1.603886        -4.924515
 H         3.520954        -1.863000        -4.304612
 H         2.681585         1.784953        -3.605167
 H         2.055899         1.025206        -5.057722
 H         0.238763        -0.091566        -3.466534
 H         3.080087         1.522290        -0.861018
 H         4.132849         0.056586        -1.925789
 H         3.187793        -1.341214        -1.475925
 H         1.328084        -0.755341         0.449218
