19
Iteration:   301charge 0 multiplicity 1
 C         2.460296        -1.684069        -4.016925
 C         2.348819        -0.475446        -3.128844
 C         2.224658         0.923041        -3.854521
 C         1.219894         0.427484        -2.868309
 O         1.206633         0.907853        -1.500224
 C         2.599422         0.698144        -1.077560
 C         3.161402        -0.494444        -1.907027
 C         2.284596         0.176360         0.296989
 O         2.218472         0.839493         1.382372
 H         2.540847        -2.653608        -3.465381
 H         1.701909        -1.574102        -4.884409
 H         3.454696        -1.624031        -4.610161
 H         2.820951         1.778481        -3.604045
 H         2.134319         0.924640        -4.912435
 H         0.182920         0.091283        -2.964459
 H         3.222279         1.634451        -1.060447
 H         4.225259        -0.403431        -2.146405
 H         2.930958        -1.381722        -1.406641
 H         2.005563        -0.845474         0.288599
