19
Iteration:  2005
 C         2.437727        -1.737432        -3.848854
 C         2.494105        -0.457246        -3.114730
 C         2.119693         0.802315        -3.885817
 C         1.081546         0.247407        -2.942066
 O         1.138187         0.993838        -1.737416
 C         2.391120         0.801200        -1.023961
 C         3.327165        -0.000865        -1.936469
 C         2.141635         0.217709         0.380517
 O         2.579486         0.452252         1.432901
 H         3.443027        -1.948950        -4.224684
 H         1.946354        -2.518059        -3.220378
 H         1.826871        -1.727031        -4.768312
 H         2.495074         1.813701        -3.445902
 H         2.052622         0.938120        -4.906186
 H         0.122560        -0.278110        -3.187161
 H         2.940448         1.749009        -0.970628
 H         4.173561         0.551740        -2.286207
 H         3.775671        -0.831666        -1.337328
 H         1.446950        -0.619195         0.341665
