19
Iteration:  4888
 C         2.402377        -1.775557        -3.807774
 C         2.479557        -0.441852        -3.150217
 C         2.259085         0.898154        -3.853042
 C         1.172309         0.459253        -3.029486
 O         1.085346         1.031599        -1.716138
 C         2.282950         0.681182        -0.973998
 C         3.245723        -0.255219        -1.870001
 C         2.028138         0.135512         0.432258
 O         2.752236         0.627737         1.310594
 H         3.364847        -2.342151        -4.076319
 H         1.728848        -2.529750        -3.357619
 H         2.012640        -1.739040        -4.908996
 H         2.655895         1.832098        -3.552188
 H         2.022970         0.896877        -4.922818
 H         0.242715         0.002606        -3.561255
 H         2.783655         1.578398        -0.628887
 H         4.217689         0.156492        -2.006876
 H         3.456186        -1.280567        -1.393569
 H         1.298234        -0.785330         0.587647
