19
Iteration:  4491
 C         2.549248        -1.712939        -3.989590
 C         2.389096        -0.467033        -3.143230
 C         2.319144         0.894491        -3.960711
 C         1.139113         0.454964        -3.062304
 O         0.960070         0.852094        -1.653894
 C         2.205013         0.767546        -1.062828
 C         3.059715        -0.367871        -1.776680
 C         2.034738         0.531870         0.506523
 O         2.951436         0.446442         1.445384
 H         3.630003        -1.661235        -4.281034
 H         2.353845        -2.732755        -3.654831
 H         2.003491        -1.587587        -4.892519
 H         3.148077         1.591346        -3.565470
 H         2.335866         0.551008        -5.016333
 H         0.269160         0.007521        -3.501360
 H         2.873552         1.640614        -1.143958
 H         4.204033        -0.249627        -1.582685
 H         2.915203        -1.316229        -1.224413
 H         0.951284         0.512538         0.732985
