19
Iteration:  1000charge 0 multiplicity 1
 C         2.432232        -1.770926        -3.757482
 C         2.430847        -0.374484        -3.115455
 C         2.398052         0.925735        -3.930366
 C         1.253422         0.371937        -3.078672
 O         0.928738         0.784325        -1.712246
 C         2.174996         0.890147        -0.987079
 C         3.129126        -0.052523        -1.804687
 C         2.042142         0.395095         0.464303
 O         2.929604         0.249641         1.224506
 H         2.362472        -1.686120        -4.824185
 H         3.291888        -2.411826        -3.476190
 H         1.408722        -2.240963        -3.510363
 H         3.108373         1.768467        -3.643977
 H         2.073264         0.686488        -4.894090
 H         0.380324         0.079055        -3.517884
 H         2.520909         1.901077        -0.986191
 H         4.193994         0.317010        -1.844780
 H         3.228466        -0.975020        -1.089965
 H         0.996827         0.133424         0.761198
