19
Iteration:  2407charge 0 multiplicity 1
 C         2.583814        -1.655528        -3.926980
 C         2.510194        -0.470184        -3.126062
 C         2.241812         0.832985        -3.833274
 C         1.157447         0.301244        -2.863887
 O         0.944949         0.753560        -1.638805
 C         2.293809         0.842776        -1.065924
 C         3.146607        -0.210248        -1.738737
 C         2.087294         0.794390         0.403056
 O         2.765862         0.177240         1.141158
 H         3.658888        -2.048175        -4.057125
 H         2.179639        -2.507819        -3.476283
 H         2.131224        -1.368207        -4.853438
 H         2.914549         1.712238        -3.612732
 H         1.854250         0.724566        -4.793879
 H         0.351939        -0.191616        -3.348655
 H         2.691895         1.864740        -1.320963
 H         4.098552         0.257038        -1.711437
 H         2.987808        -1.081980        -1.039147
 H         1.129832         1.247197         0.657745
