19
Iteration:  4444
 C         2.563631        -1.725777        -3.952768
 C         2.472934        -0.431664        -3.163098
 C         2.223690         0.960976        -3.841027
 C         1.108957         0.363595        -2.902260
 O         1.116619         0.997660        -1.694530
 C         2.374426         0.758148        -1.029546
 C         3.019609        -0.426052        -1.732275
 C         2.058934         0.403561         0.372048
 O         2.771572         0.494289         1.270898
 H         3.550965        -1.860381        -4.385110
 H         2.494184        -2.509796        -3.125340
 H         1.749955        -2.024844        -4.695774
 H         2.337847         1.944441        -3.523336
 H         2.086833         0.860075        -4.904807
 H         0.178790        -0.121324        -3.178893
 H         3.078465         1.543924        -1.158013
 H         4.125172        -0.301666        -1.725739
 H         2.944504        -1.421874        -1.149752
 H         1.005112        -0.060820         0.273270
