19
Iteration:  1290charge 0 multiplicity 1
 C         2.540044        -1.577596        -4.168721
 C         2.501064        -0.430242        -3.109918
 C         2.185279         0.919898        -3.816003
 C         1.122391         0.258974        -2.949319
 O         1.075823         0.810475        -1.677850
 C         2.339271         0.665064        -1.022427
 C         3.085852        -0.496685        -1.689491
 C         2.018348         0.582565         0.431349
 O         2.850385         0.564578         1.343090
 H         3.574986        -1.574763        -4.764809
 H         2.364148        -2.513638        -3.632974
 H         1.700766        -1.458920        -4.812086
 H         2.581349         1.849003        -3.488689
 H         2.180597         0.924745        -4.979795
 H         0.202918        -0.149315        -3.238537
 H         3.009350         1.567845        -1.064749
 H         4.178298        -0.264658        -1.545597
 H         2.600891        -1.428467        -1.127535
 H         0.911771         0.722739         0.571472
