19
Iteration:  2842charge 0 multiplicity 1
 C         2.596087        -1.567307        -4.189880
 C         2.428084        -0.441675        -3.096179
 C         2.270739         0.849256        -3.743051
 C         1.176136         0.259491        -2.921631
 O         0.979208         0.873894        -1.652197
 C         2.291150         0.692904        -1.015454
 C         3.060851        -0.438512        -1.737950
 C         2.126029         0.337725         0.449020
 O         2.788768         0.757356         1.283831
 H         3.510168        -1.329165        -4.597343
 H         2.411429        -2.606420        -3.862492
 H         1.714436        -1.531438        -4.841374
 H         2.639899         1.707063        -3.104085
 H         2.357205         0.961940        -4.777540
 H         0.267470        -0.119095        -3.340918
 H         2.772148         1.638303        -1.160266
 H         4.092814        -0.387735        -1.933574
 H         2.834979        -1.429733        -1.268665
 H         1.347391        -0.554014         0.509357
