19
Iteration:  3815
 C         2.564159        -1.694871        -3.958479
 C         2.314579        -0.521833        -3.112965
 C         2.178631         0.816244        -3.951770
 C         1.158093         0.365075        -2.950810
 O         1.012668         1.018632        -1.693440
 C         2.394452         0.799525        -1.055644
 C         3.179856        -0.193986        -1.845636
 C         2.232353         0.210639         0.447513
 O         2.648101         0.529377         1.475588
 H         3.595272        -2.193590        -3.918758
 H         1.882461        -2.526398        -3.733483
 H         2.279555        -1.588321        -4.990052
 H         2.956543         1.587742        -3.604376
 H         1.946754         1.109902        -4.970651
 H         0.129909         0.114762        -3.331210
 H         2.801842         1.797562        -0.981513
 H         4.226127         0.120904        -2.175520
 H         3.345419        -1.099950        -1.226942
 H         1.615379        -0.711047         0.223944
