19
Iteration:  3415charge 0 multiplicity 1
 C         2.730263        -1.782785        -3.619206
 C         2.558679        -0.408791        -3.096343
 C         2.061260         0.740014        -3.970984
 C         1.121690         0.381215        -2.891710
 O         0.912700         1.058160        -1.672322
 C         2.248724         0.971789        -1.029453
 C         3.165564         0.038680        -1.823090
 C         2.053766         0.460189         0.386796
 O         2.835014        -0.046552         1.080433
 H         3.555965        -1.658681        -4.263762
 H         2.825303        -2.494828        -2.807485
 H         2.104316        -2.125839        -4.444694
 H         2.573963         1.678236        -3.993367
 H         1.814871         0.343149        -5.071383
 H         0.252549        -0.136157        -3.256151
 H         2.782591         1.955362        -0.881437
 H         4.131754         0.471840        -2.077246
 H         3.447056        -0.799817        -1.122735
 H         0.890000         0.510574         0.573523
