19
Iteration:  3935
 C         2.567278        -1.779359        -3.788689
 C         2.372470        -0.394905        -3.090651
 C         2.169074         0.884917        -3.937623
 C         1.157975         0.351073        -2.949667
 O         1.090856         0.995660        -1.752469
 C         2.328183         0.830996        -0.989121
 C         3.156512        -0.153106        -1.864947
 C         2.021459         0.315877         0.367744
 O         2.825164         0.309284         1.334099
 H         3.588410        -1.783622        -4.312386
 H         2.452594        -2.636935        -3.150875
 H         1.797249        -1.845142        -4.515761
 H         2.609539         1.831225        -3.772710
 H         2.004221         0.717275        -5.069382
 H         0.203995        -0.052732        -3.229694
 H         2.776659         1.793115        -0.787075
 H         4.229876         0.171453        -1.904720
 H         3.126323        -1.073305        -1.291417
 H         0.907851         0.075152         0.424992
