19
Iteration:  3319charge 0 multiplicity 1
 C         2.754403        -1.761352        -3.517709
 C         2.413049        -0.376598        -3.110277
 C         1.986191         0.817759        -4.018323
 C         1.060941         0.273031        -2.836931
 O         1.029477         1.006457        -1.643326
 C         2.394355         0.910523        -1.057583
 C         3.343883         0.132950        -1.993864
 C         2.017883         0.524561         0.387575
 O         2.671274        -0.147198         1.098477
 H         3.882953        -1.798181        -3.640433
 H         2.448730        -2.412563        -2.695032
 H         2.565779        -2.227586        -4.561016
 H         2.491264         1.767000        -3.853650
 H         1.605925         0.522694        -5.050067
 H         0.075709        -0.083359        -3.086582
 H         2.663484         1.957626        -0.995991
 H         4.224548         0.697191        -2.204963
 H         3.672774        -0.760634        -1.467188
 H         1.126138         1.063285         0.692318
