19
Iteration:  1884charge 0 multiplicity 1
 C         2.526658        -1.616250        -3.947285
 C         2.462357        -0.385466        -3.156269
 C         2.295852         1.007426        -3.752792
 C         1.160435         0.314678        -3.018289
 O         0.993122         0.602544        -1.646018
 C         2.265301         0.738351        -1.070123
 C         3.100719        -0.364671        -1.739346
 C         2.060155         0.547663         0.341698
 O         2.862273         0.538815         1.321084
 H         3.521959        -1.980300        -4.288635
 H         2.086107        -2.384524        -3.285750
 H         1.829067        -1.521422        -4.897190
 H         2.756171         1.949958        -3.698086
 H         2.318264         0.894457        -4.917325
 H         0.268951         0.047788        -3.499589
 H         2.616684         1.770310        -1.127091
 H         4.159055        -0.159008        -1.682172
 H         2.950657        -1.345854        -1.243295
 H         0.978084         0.302488         0.612886
