19
Iteration:  4756charge 0 multiplicity 1
 C         2.466677        -1.812701        -3.878065
 C         2.382421        -0.406013        -3.191768
 C         2.195167         0.859296        -3.997377
 C         1.195330         0.465939        -2.976873
 O         1.138750         0.961688        -1.664982
 C         2.410196         0.804829        -1.019312
 C         3.177315        -0.275282        -1.831138
 C         2.139311         0.289116         0.336025
 O         2.622649         0.498605         1.506708
 H         3.536562        -2.170338        -4.148609
 H         2.087207        -2.509494        -3.122069
 H         1.920455        -1.989053        -4.879404
 H         2.814942         1.705291        -3.772385
 H         1.717406         0.936741        -4.909060
 H         0.269858         0.260310        -3.456933
 H         2.937084         1.712286        -1.090470
 H         4.201410         0.062206        -1.900421
 H         3.071417        -1.226454        -1.242759
 H         1.289396        -0.498161         0.425479
