19
Iteration:  1838charge 0 multiplicity 1
 C         2.691813        -1.680466        -4.035495
 C         2.456815        -0.428631        -3.148171
 C         2.342024         0.986652        -3.770732
 C         1.160006         0.381372        -3.040281
 O         0.867726         0.673864        -1.657748
 C         2.154762         0.610467        -1.017139
 C         2.941795        -0.414393        -1.764832
 C         2.039746         0.695453         0.547400
 O         3.000972         0.499871         1.263923
 H         3.838236        -1.785428        -4.257958
 H         2.409482        -2.609085        -3.547266
 H         2.219747        -1.662356        -5.117362
 H         2.767514         1.978674        -3.524566
 H         2.243321         0.961313        -4.895067
 H         0.193801         0.149676        -3.511633
 H         2.642536         1.563854        -1.173318
 H         4.011096        -0.124928        -1.799009
 H         2.938141        -1.435650        -1.349810
 H         1.017063         1.111564         0.894905
