19
Iteration:   874
 C         2.440427        -1.698180        -3.924671
 C         2.485686        -0.402436        -3.150523
 C         2.339232         0.964249        -3.792840
 C         1.248006         0.368384        -3.030587
 O         1.033517         0.892720        -1.699950
 C         2.250486         0.653590        -1.012804
 C         3.158920        -0.371704        -1.814485
 C         1.949912         0.370505         0.416260
 O         2.805103         0.557141         1.317278
 H         1.437970        -2.193184        -3.977001
 H         2.506462        -1.542061        -5.021262
 H         3.248120        -2.359610        -3.620549
 H         2.926356         1.645679        -3.184251
 H         2.093277         1.176329        -4.809478
 H         0.309329        -0.045526        -3.408525
 H         2.856206         1.561308        -1.042140
 H         4.161816         0.009351        -1.809238
 H         3.188673        -1.331768        -1.367385
 H         1.008852         0.014316         0.739772
