19
Iteration:  1307
 C         2.507068        -1.635725        -4.046879
 C         2.493319        -0.453736        -3.166801
 C         2.247414         0.975689        -3.854779
 C         1.209471         0.270366        -2.987102
 O         1.008203         0.732078        -1.623496
 C         2.341399         0.846855        -1.047250
 C         3.038503        -0.435912        -1.727127
 C         2.044271         0.625762         0.476164
 O         2.861741         0.473371         1.350944
 H         3.459312        -1.750976        -4.426580
 H         2.141085        -2.598774        -3.581175
 H         1.958922        -1.439358        -5.008082
 H         2.708179         1.886350        -3.445679
 H         1.997297         0.898916        -4.902387
 H         0.335380        -0.157944        -3.557108
 H         2.703226         1.840791        -1.350684
 H         4.110361        -0.455796        -1.699304
 H         2.779016        -1.368768        -1.420518
 H         0.942500         0.279246         0.669273
