19
Iteration:    57
 C         2.766358        -1.712131        -3.800334
 C         2.427598        -0.371806        -3.063004
 C         2.299622         0.931277        -3.925732
 C         1.067663         0.405558        -3.138996
 O         0.833813         0.924386        -1.786526
 C         2.116139         0.739778        -0.986129
 C         3.067005        -0.322386        -1.619552
 C         1.972550         0.443297         0.513427
 O         3.075198         0.345570         1.126917
 H         2.269701        -2.494915        -3.372977
 H         2.312883        -1.702009        -4.841419
 H         3.843928        -1.887487        -3.871262
 H         2.631390         1.784158        -3.358883
 H         2.514426         0.997544        -5.015504
 H         0.289899        -0.189040        -3.597039
 H         2.698132         1.663818        -0.927399
 H         4.173871        -0.189617        -1.560762
 H         2.861267        -1.273494        -1.076391
 H         0.879970         0.350648         1.069802
