19
Iteration:  1131
 C         2.604507        -1.681349        -3.890904
 C         2.447890        -0.339987        -3.221691
 C         2.140451         0.973725        -3.935464
 C         1.122164         0.292814        -2.935800
 O         1.059727         0.816167        -1.637955
 C         2.368273         0.721221        -1.045948
 C         3.101861        -0.351086        -1.791088
 C         2.088371         0.515050         0.440304
 O         2.797995         0.457035         1.367601
 H         3.467113        -2.174773        -3.672868
 H         1.819741        -2.408950        -3.620500
 H         2.395975        -1.594456        -4.991921
 H         2.564116         1.891164        -3.691764
 H         1.963269         1.064106        -5.043199
 H         0.137814        -0.155033        -3.367017
 H         3.015948         1.613324        -1.234740
 H         4.167980        -0.213438        -1.863687
 H         2.832675        -1.324269        -1.472546
 H         1.059113         0.110194         0.520632
