19
Iteration:   687charge 0 multiplicity 1
 C         2.484029        -1.715755        -3.892196
 C         2.466977        -0.394773        -3.155314
 C         2.488514         0.933771        -3.798465
 C         1.186530         0.377742        -3.035115
 O         0.960961         0.804214        -1.690728
 C         2.154693         0.811978        -1.048100
 C         3.076203        -0.274560        -1.694629
 C         1.977494         0.461349         0.390198
 O         2.914878         0.401857         1.216956
 H         1.617555        -2.297828        -3.468541
 H         2.211830        -1.823161        -4.975788
 H         3.417354        -2.192516        -3.675774
 H         3.147076         1.619225        -3.283684
 H         2.426188         1.085340        -4.900965
 H         0.208930         0.101936        -3.596330
 H         2.703013         1.748324        -1.064943
 H         4.153970        -0.122510        -1.650023
 H         2.878375        -1.289304        -1.088185
 H         0.837536         0.217405         0.744256
