19
Iteration:  2079
 C         2.571778        -1.822943        -3.715680
 C         2.412332        -0.460712        -3.166034
 C         2.023091         0.844545        -3.962683
 C         1.103765         0.323187        -2.876382
 O         1.186450         1.085940        -1.701795
 C         2.450364         0.950958        -1.033597
 C         3.236965        -0.077702        -1.959910
 C         2.238365         0.170323         0.279152
 O         2.480190         0.357234         1.426053
 H         3.650164        -1.947081        -4.135793
 H         2.537292        -2.618088        -2.985201
 H         1.639300        -2.017433        -4.360284
 H         2.506282         1.784005        -3.515394
 H         1.806391         0.943505        -4.954677
 H         0.128203        -0.156059        -3.025746
 H         2.995241         1.963195        -1.179501
 H         4.197124         0.418971        -2.074953
 H         3.426923        -1.095508        -1.482295
 H         1.625928        -0.749879         0.011711
