19
Iteration:  2254
 C         2.578471        -1.736051        -3.573434
 C         2.499448        -0.315686        -3.158575
 C         2.037689         0.772676        -4.132595
 C         1.150335         0.463440        -2.962834
 O         1.086813         0.996319        -1.665528
 C         2.308040         0.803008        -1.009160
 C         3.339054        -0.049819        -1.928214
 C         2.026599         0.224512         0.399765
 O         2.686101         0.262195         1.348914
 H         3.573385        -2.157747        -4.032571
 H         2.221328        -2.343684        -2.750820
 H         1.957850        -2.007742        -4.462721
 H         2.632070         1.594110        -4.234685
 H         1.707108         0.521127        -5.173784
 H         0.090609         0.191497        -3.271003
 H         2.782450         1.781900        -0.837033
 H         4.284788         0.462069        -2.068982
 H         3.653667        -1.132268        -1.594389
 H         1.078798        -0.245866         0.537452
