19
Iteration:  3216
 C         2.750706        -1.811909        -3.461950
 C         2.433168        -0.356734        -3.100847
 C         2.013579         0.886120        -3.970066
 C         1.053521         0.314490        -2.944613
 O         0.989645         0.989348        -1.700722
 C         2.297556         0.911902        -1.058668
 C         3.271111         0.094067        -1.918088
 C         2.069236         0.564213         0.366768
 O         2.794008        -0.206081         1.086304
 H         3.697829        -1.756568        -4.007758
 H         3.166934        -2.281640        -2.505291
 H         1.930610        -2.420671        -3.820547
 H         2.520003         1.808072        -3.892269
 H         1.700300         0.782295        -5.072331
 H         0.061513        -0.096324        -3.296851
 H         2.579229         1.980695        -0.963417
 H         4.119074         0.636678        -2.301867
 H         3.611576        -0.703566        -1.222880
 H         1.029373         1.014268         0.614143
