19
Iteration:  2265charge 0 multiplicity 1
 C         2.589045        -1.813439        -3.576037
 C         2.472653        -0.313613        -3.250630
 C         2.075970         0.870871        -4.140010
 C         1.149528         0.449500        -2.946526
 O         1.056250         0.989985        -1.633624
 C         2.383400         0.786737        -0.981146
 C         3.300739        -0.056501        -1.922724
 C         1.915031         0.250037         0.379756
 O         2.756259         0.261362         1.345149
 H         3.739571        -2.021193        -3.771150
 H         2.402781        -2.445954        -2.705382
 H         1.825035        -2.038635        -4.349977
 H         2.728517         1.632713        -4.158756
 H         1.641531         0.406443        -5.069141
 H         0.160555        -0.001810        -3.286015
 H         2.782853         1.795212        -0.830694
 H         4.189149         0.505041        -2.174126
 H         3.567218        -1.073680        -1.357668
 H         0.951096        -0.118161         0.228903
