19
Iteration:   178
 C         2.541366        -1.571089        -4.156306
 C         2.359924        -0.459333        -3.141834
 C         2.310491         0.901641        -3.872171
 C         1.159582         0.326393        -2.973083
 O         1.065866         0.885341        -1.631942
 C         2.435663         0.625361        -0.997761
 C         3.064329        -0.522312        -1.797703
 C         2.314341         0.189765         0.513529
 O         2.455963         0.926130         1.409049
 H         2.328610        -2.573744        -3.629020
 H         1.848191        -1.456702        -5.055338
 H         3.586325        -1.661217        -4.428277
 H         2.864247         1.849553        -3.568860
 H         2.284824         0.864068        -4.979825
 H         0.129907         0.168885        -3.347935
 H         2.947963         1.647861        -1.040576
 H         4.174327        -0.531538        -1.847350
 H         2.730769        -1.429812        -1.346626
 H         2.140383        -0.987781         0.585930
