19
Iteration:  4282charge 0 multiplicity 1
 C         2.536125        -1.736205        -3.997411
 C         2.392861        -0.435244        -3.166005
 C         2.103066         0.838596        -3.924799
 C         1.127606         0.421179        -2.903028
 O         1.250222         1.053730        -1.625071
 C         2.421042         0.639769        -0.951658
 C         3.173113        -0.321323        -1.829309
 C         2.024468         0.186414         0.348326
 O         2.637942         0.668131         1.364372
 H         3.466199        -1.652451        -4.592046
 H         2.514501        -2.697585        -3.424579
 H         1.655226        -1.789151        -4.673522
 H         2.711984         1.651022        -3.593896
 H         1.905288         0.836645        -5.056834
 H         0.027538         0.039713        -3.071224
 H         3.216842         1.462840        -0.891954
 H         4.290553        -0.072340        -1.880968
 H         3.255825        -1.326761        -1.431479
 H         1.031433        -0.364443         0.541519
