19
Iteration:  1054charge 0 multiplicity 1
 C         2.592578        -1.792239        -3.771053
 C         2.449888        -0.387071        -3.178505
 C         2.228392         0.923090        -3.900812
 C         1.123340         0.415914        -3.024647
 O         1.004087         0.903903        -1.672586
 C         2.255304         0.882895        -1.032448
 C         3.091772        -0.226479        -1.758029
 C         2.044763         0.443250         0.419781
 O         2.889005         0.253531         1.213035
 H         3.047967        -1.790994        -4.692686
 H         3.058605        -2.478430        -3.048489
 H         1.595582        -2.269769        -4.089975
 H         2.862824         1.745435        -3.468452
 H         2.243984         0.980963        -4.972939
 H         0.185663         0.062538        -3.376770
 H         2.811581         1.815758        -1.103239
 H         4.148450         0.120663        -1.728146
 H         2.995055        -1.211954        -1.205072
 H         0.955028         0.134461         0.644139
