19
Iteration:  1324charge 0 multiplicity 1
 C         2.544987        -1.705169        -3.947672
 C         2.461168        -0.369580        -3.205905
 C         2.301841         0.936170        -3.824092
 C         1.146747         0.396532        -2.996020
 O         0.947886         0.706229        -1.661970
 C         2.241381         0.762190        -1.060430
 C         3.070445        -0.289427        -1.789787
 C         2.091404         0.517691         0.442274
 O         2.894515         0.447940         1.322064
 H         3.578439        -2.239368        -4.107777
 H         2.003734        -2.452078        -3.374806
 H         2.083431        -1.665004        -4.974644
 H         2.961854         1.745323        -3.422003
 H         2.150578         0.895645        -4.899045
 H         0.106752         0.180964        -3.382090
 H         2.759941         1.752487        -1.168593
 H         4.184335        -0.201741        -1.692849
 H         2.955616        -1.271193        -1.066838
 H         1.067509         0.545982         0.767456
