19
Iteration:   995charge 0 multiplicity 1
 C         2.452041        -1.786764        -3.787260
 C         2.425778        -0.375747        -3.082245
 C         2.370152         0.922483        -3.950099
 C         1.232065         0.366043        -3.057887
 O         0.948361         0.807563        -1.717238
 C         2.177882         0.888862        -0.995758
 C         3.136565        -0.052568        -1.770921
 C         2.028264         0.402512         0.470565
 O         2.938924         0.246873         1.240161
 H         2.498121        -1.565827        -4.904279
 H         3.314397        -2.487236        -3.811462
 H         1.499004        -2.223844        -3.341514
 H         3.231325         1.536451        -3.647546
 H         2.078269         0.661964        -5.047131
 H         0.202492         0.135600        -3.577502
 H         2.497450         1.988142        -1.026339
 H         4.169412         0.275287        -1.804170
 H         3.156024        -0.910406        -1.197294
 H         0.912958         0.076767         0.734556
