19
Iteration:  1308charge 0 multiplicity 1
 C         2.506541        -1.637671        -4.043676
 C         2.493161        -0.455263        -3.166126
 C         2.256932         0.975440        -3.849623
 C         1.199975         0.271817        -2.990471
 O         1.005288         0.727007        -1.623299
 C         2.333495         0.853041        -1.047718
 C         3.041540        -0.435977        -1.735945
 C         2.036393         0.624000         0.471886
 O         2.870740         0.467882         1.357836
 H         3.519383        -1.783226        -4.411625
 H         2.107510        -2.573671        -3.546733
 H         1.965051        -1.452471        -4.975249
 H         2.719580         1.874803        -3.477001
 H         1.971250         0.923489        -4.941899
 H         0.362989        -0.117491        -3.547075
 H         2.709321         1.882301        -1.352265
 H         4.128099        -0.408166        -1.706264
 H         2.738729        -1.356349        -1.423150
 H         0.976557         0.287206         0.640581
