19
Iteration:  4649charge 0 multiplicity 1
 C         2.490090        -1.767353        -3.953302
 C         2.479581        -0.388063        -3.198154
 C         2.236330         0.872287        -3.909342
 C         1.125847         0.383005        -2.999630
 O         1.036704         0.917054        -1.660578
 C         2.460168         0.801536        -1.041025
 C         3.128023        -0.347461        -1.760943
 C         2.066247         0.421678         0.423174
 O         2.732673         0.469797         1.395558
 H         3.455746        -1.826838        -4.387241
 H         2.390256        -2.568385        -3.294195
 H         1.700238        -1.808522        -4.710104
 H         2.726625         1.774038        -3.542014
 H         1.971198         0.972435        -4.911657
 H         0.281014        -0.001901        -3.493768
 H         3.049320         1.743087        -1.098340
 H         4.165036        -0.363653        -1.684148
 H         2.811947        -1.212228        -1.191295
 H         0.930928         0.139981         0.489132
