19
Iteration:  1250
 C         2.696696        -1.649425        -4.176018
 C         2.300249        -0.483748        -3.217520
 C         2.221464         0.954230        -3.834338
 C         1.138451         0.377431        -3.028216
 O         1.052818         0.808396        -1.605469
 C         2.343695         0.669817        -0.997242
 C         2.974668        -0.536699        -1.733614
 C         2.073702         0.487474         0.511407
 O         2.872258         0.680297         1.398507
 H         3.604104        -1.524955        -4.655062
 H         2.894108        -2.587882        -3.628877
 H         1.828141        -1.974149        -4.874151
 H         2.850408         1.762346        -3.465170
 H         2.053850         1.019235        -4.906835
 H         0.013805         0.247913        -3.378277
 H         2.885895         1.671230        -1.138312
 H         4.058785        -0.421786        -1.739954
 H         2.631624        -1.447398        -1.263460
 H         1.018548         0.352314         0.737693
