19
Iteration:  1701charge 0 multiplicity 1
 C         2.449516        -1.665646        -3.805227
 C         2.502680        -0.318807        -3.056129
 C         2.131622         0.867053        -3.877782
 C         1.099441         0.240686        -2.923009
 O         1.057554         0.907858        -1.739052
 C         2.320022         0.758132        -1.036418
 C         3.366928        -0.107265        -1.811061
 C         2.061584         0.202888         0.342086
 O         2.708905         0.479818         1.240792
 H         3.535769        -2.002944        -4.007697
 H         1.843338        -2.432535        -3.110923
 H         1.902177        -1.695162        -4.764732
 H         2.513995         1.773826        -3.425449
 H         2.215546         0.881189        -5.005842
 H         0.197113        -0.359541        -3.073292
 H         2.733261         1.803438        -0.974684
 H         4.310342         0.424664        -1.953862
 H         3.708374        -1.127214        -1.448333
 H         1.218066        -0.447659         0.406101
