19
Iteration:  4203
 C         2.396899        -1.780383        -4.034286
 C         2.397681        -0.449588        -3.187814
 C         2.348738         0.896603        -3.846325
 C         1.132496         0.464300        -2.947244
 O         1.009538         0.912087        -1.641436
 C         2.312637         0.635948        -1.020936
 C         3.241286        -0.244626        -1.741589
 C         2.054940         0.150653         0.446084
 O         2.771092         0.713426         1.297567
 H         3.401201        -2.116904        -4.070509
 H         1.891215        -2.578361        -3.405865
 H         2.006463        -1.637014        -5.114372
 H         2.986290         1.676937        -3.425124
 H         2.076986         1.008320        -4.818069
 H         0.249774         0.294754        -3.470589
 H         2.888499         1.578149        -1.043500
 H         4.179345         0.268107        -1.967379
 H         3.480706        -1.213753        -1.250590
 H         1.354009        -0.613331         0.717644
