19
Iteration:  4853charge 0 multiplicity 1
 C         2.475952        -1.788939        -3.815770
 C         2.343346        -0.424373        -3.164429
 C         2.254109         0.860515        -3.945548
 C         1.145763         0.515112        -3.065140
 O         1.120134         0.925418        -1.616317
 C         2.438128         0.834593        -0.988349
 C         3.179504        -0.320945        -1.887301
 C         2.109086         0.259394         0.324300
 O         2.635331         0.519834         1.440728
 H         3.563459        -1.897645        -4.172923
 H         2.267832        -2.570236        -3.079927
 H         1.727723        -1.730135        -4.675411
 H         2.765855         1.753943        -3.692855
 H         1.946380         0.760165        -4.955141
 H         0.187349         0.201718        -3.418076
 H         2.977812         1.806339        -1.107438
 H         4.263725        -0.059244        -2.012704
 H         3.038171        -1.148373        -1.190895
 H         1.446224        -0.715656         0.289718
