19
Iteration:  3621charge 0 multiplicity 1
 C         2.643794        -1.613707        -4.088123
 C         2.371236        -0.428941        -3.169586
 C         2.315543         0.917354        -3.769278
 C         1.088077         0.383949        -2.937718
 O         0.932548         0.695244        -1.631898
 C         2.224578         0.613087        -1.026443
 C         3.149347        -0.416274        -1.767528
 C         2.061740         0.483513         0.450320
 O         2.905125         0.662581         1.265880
 H         3.674576        -1.837144        -4.303386
 H         2.031137        -2.515443        -3.837699
 H         2.366153        -1.454928        -5.111914
 H         2.882775         1.783742        -3.276420
 H         2.163960         1.034213        -4.784333
 H         0.223505        -0.112655        -3.450583
 H         2.602933         1.675315        -0.936487
 H         4.132380         0.024058        -1.739531
 H         2.923389        -1.285319        -1.152374
 H         0.969995         0.433602         0.812879
