19
Iteration:  3920
 C         2.503583        -1.744682        -3.905460
 C         2.472907        -0.463631        -3.138593
 C         2.212842         0.713391        -3.996894
 C         1.118601         0.417216        -2.991789
 O         0.995815         1.012448        -1.615949
 C         2.362137         0.915643        -1.007321
 C         3.244589        -0.108558        -1.779295
 C         2.003589         0.336877         0.382712
 O         2.783393         0.292690         1.393927
 H         3.374488        -1.834639        -4.524659
 H         2.592914        -2.640799        -3.263749
 H         1.707685        -1.826383        -4.696521
 H         2.933926         1.539411        -3.774162
 H         1.834516         0.580250        -4.953755
 H         0.130639         0.075822        -3.434793
 H         2.851749         1.922511        -1.062102
 H         4.137867         0.444068        -2.109242
 H         3.516099        -1.009894        -1.226385
 H         1.057111        -0.185205         0.508452
