19
Iteration:  4492
 C         2.544577        -1.712055        -3.985840
 C         2.393890        -0.477484        -3.145726
 C         2.319156         0.895169        -3.960115
 C         1.143399         0.451435        -3.056254
 O         0.951133         0.849168        -1.658747
 C         2.206355         0.771784        -1.055236
 C         3.065888        -0.365617        -1.774464
 C         2.034615         0.531412         0.508396
 O         2.952879         0.445861         1.442011
 H         3.617774        -1.660064        -4.293734
 H         2.334213        -2.701235        -3.677661
 H         2.019491        -1.554618        -4.883561
 H         3.171061         1.575447        -3.578402
 H         2.356063         0.586013        -5.045575
 H         0.244630         0.002343        -3.524828
 H         2.874894         1.666345        -1.152356
 H         4.185055        -0.264879        -1.578407
 H         2.895450        -1.282456        -1.229686
 H         0.964088         0.520443         0.731832
