19
Iteration:   442
 C         2.740033        -1.761865        -3.750540
 C         2.460447        -0.393377        -3.128781
 C         2.412134         0.879784        -3.900080
 C         1.162978         0.462566        -3.138539
 O         0.878344         0.951185        -1.679824
 C         2.060929         0.850685        -0.987170
 C         2.896987        -0.305067        -1.651729
 C         2.006952         0.528541         0.504354
 O         3.022364         0.187861         1.056054
 H         2.476979        -2.547786        -2.910885
 H         2.207255        -1.977262        -4.760577
 H         3.738692        -1.875851        -3.994520
 H         3.015994         1.788292        -3.777638
 H         2.455360         0.687819        -4.954944
 H         0.121018         0.178068        -3.591652
 H         2.711618         1.745132        -1.092389
 H         4.049990        -0.166885        -1.497585
 H         2.492617        -1.321593        -1.179684
 H         1.057393         0.867885         1.022414
