19
Iteration:   529charge 0 multiplicity 1
 C         2.565523        -1.688522        -3.991391
 C         2.476754        -0.350843        -3.206087
 C         2.311519         0.905236        -3.892777
 C         1.131745         0.304084        -3.016054
 O         1.017104         0.710521        -1.667303
 C         2.415960         0.725005        -1.013115
 C         3.153490        -0.281527        -1.847334
 C         2.071973         0.816293         0.473774
 O         2.614859         0.269361         1.456203
 H         2.140228        -2.513255        -3.347776
 H         1.921256        -1.421928        -4.880509
 H         3.441892        -2.148413        -4.223266
 H         2.830515         1.694538        -3.446317
 H         2.084336         0.857939        -4.961546
 H         0.238437        -0.139059        -3.603682
 H         2.891297         1.705687        -1.223035
 H         4.329280        -0.215285        -1.766432
 H         2.930185        -1.267504        -1.250143
 H         1.179785         1.344190         0.663837
