19
Iteration:   466charge 0 multiplicity 1
 C         2.759335        -1.661447        -3.792569
 C         2.362060        -0.463200        -3.015528
 C         2.344113         0.921637        -3.760504
 C         1.166059         0.332844        -3.065729
 O         0.871842         0.966492        -1.867723
 C         2.158340         0.881253        -1.080066
 C         2.874012        -0.324545        -1.550674
 C         2.099954         0.639539         0.482725
 O         2.991148         0.102225         1.049185
 H         2.519618        -2.562811        -3.140507
 H         2.323782        -1.823668        -4.858983
 H         3.843896        -1.600731        -3.975483
 H         3.115275         1.628648        -3.553781
 H         2.249960         0.866009        -4.891924
 H         0.260435        -0.009884        -3.604057
 H         2.783618         1.786744        -1.364517
 H         3.959389        -0.219826        -1.404887
 H         2.462982        -1.235331        -1.014514
 H         1.127714         0.892702         0.943816
