19
Iteration:  4640charge 0 multiplicity 1
 C         2.561423        -1.710326        -3.927477
 C         2.497132        -0.431042        -3.177030
 C         2.191793         0.900131        -3.874903
 C         1.161036         0.342460        -2.964738
 O         1.111583         0.938020        -1.612291
 C         2.394909         0.790282        -1.046136
 C         3.046732        -0.403555        -1.740895
 C         1.987647         0.488756         0.342121
 O         2.778117         0.458926         1.331602
 H         3.354181        -1.987977        -4.568129
 H         2.353275        -2.619815        -3.322673
 H         1.730200        -1.621568        -4.634806
 H         2.848620         1.738940        -3.504186
 H         2.076912         0.983950        -4.947127
 H         0.176152        -0.056748        -3.231892
 H         2.985319         1.761411        -1.080684
 H         4.102532        -0.187448        -1.689982
 H         2.758647        -1.403904        -1.412643
 H         0.921689         0.068078         0.219480
