19
Iteration:   339
 C         2.524101        -1.709878        -3.930703
 C         2.395419        -0.418067        -3.238332
 C         2.194598         0.931806        -3.970133
 C         1.175892         0.380420        -2.949895
 O         1.234624         1.048352        -1.614880
 C         2.440096         0.608043        -0.972965
 C         3.111752        -0.394703        -1.967037
 C         2.119511         0.094074         0.440924
 O         2.471463         0.794011         1.473638
 H         2.449936        -2.614285        -3.267086
 H         1.876795        -1.797599        -4.777647
 H         3.630919        -1.741692        -4.300600
 H         2.743308         1.760429        -3.495981
 H         1.989221         0.897781        -5.104077
 H         0.243998        -0.093150        -3.292686
 H         3.028686         1.491994        -0.865420
 H         4.230567        -0.261849        -2.078466
 H         3.023047        -1.454051        -1.394557
 H         1.567402        -0.803495         0.562663
