19
Iteration:   861
 C         2.401390        -1.736111        -3.940296
 C         2.501740        -0.406548        -3.192289
 C         2.443982         1.035319        -3.750544
 C         1.178513         0.428837        -2.993917
 O         0.980795         0.788197        -1.680524
 C         2.266230         0.680676        -1.025011
 C         3.155735        -0.352665        -1.774193
 C         1.979411         0.318169         0.404584
 O         2.809586         0.596353         1.258872
 H         1.558344        -2.280050        -3.357083
 H         2.459367        -1.707743        -5.094399
 H         3.148921        -2.374468        -3.594995
 H         2.891957         1.948941        -3.369353
 H         2.467407         0.962127        -4.779329
 H         0.348163         0.309779        -3.601066
 H         2.705953         1.708964        -0.954828
 H         4.158624        -0.136076        -1.775932
 H         3.043922        -1.293319        -1.339026
 H         1.072700        -0.158880         0.532072
