19
Iteration:  2124charge 0 multiplicity 1
 C         2.472226        -1.699665        -3.708463
 C         2.462691        -0.367163        -3.103096
 C         2.042996         0.762086        -4.037297
 C         1.145338         0.281350        -2.892483
 O         1.208887         1.068365        -1.667801
 C         2.420196         0.759067        -0.987124
 C         3.367110         0.018488        -1.941235
 C         2.068883         0.082186         0.301976
 O         2.543448         0.439684         1.350313
 H         3.495455        -1.906490        -4.156807
 H         2.121055        -2.492603        -3.024820
 H         1.619413        -1.646038        -4.401989
 H         2.606618         1.634397        -4.001508
 H         1.856550         0.325421        -4.981337
 H         0.155422        -0.205284        -3.130951
 H         2.666506         1.771429        -0.644011
 H         4.123011         0.611501        -2.365895
 H         3.916157        -0.876737        -1.494997
 H         1.274215        -0.631723         0.359536
