19
Iteration:  3814charge 0 multiplicity 1
 C         2.560307        -1.699489        -3.960813
 C         2.315941        -0.515877        -3.112325
 C         2.180269         0.818551        -3.957852
 C         1.149383         0.355702        -2.941716
 O         1.022041         1.016747        -1.697168
 C         2.390160         0.795216        -1.053317
 C         3.182790        -0.194459        -1.838963
 C         2.233025         0.208179         0.442295
 O         2.648234         0.535153         1.477047
 H         3.596160        -2.180331        -3.938975
 H         1.866002        -2.511985        -3.748365
 H         2.284694        -1.549022        -5.010114
 H         2.998459         1.564396        -3.544363
 H         1.956615         1.105441        -4.938467
 H         0.111715         0.111839        -3.352992
 H         2.756997         1.797423        -0.982197
 H         4.218377         0.139352        -2.181721
 H         3.346550        -1.104043        -1.254803
 H         1.614920        -0.668730         0.218695
