19
Iteration:   563charge 0 multiplicity 1
 C         2.503344        -1.764979        -4.033075
 C         2.522743        -0.437276        -3.145119
 C         2.176691         0.996713        -3.865037
 C         1.188283         0.344588        -2.996168
 O         1.107019         0.803954        -1.655994
 C         2.467189         0.677385        -1.003349
 C         3.300484        -0.341360        -1.765947
 C         1.971612         0.706046         0.447472
 O         2.559410         0.356362         1.396169
 H         2.040520        -2.626547        -3.475408
 H         1.733373        -1.620165        -4.893401
 H         3.306976        -2.000438        -4.606354
 H         2.640192         1.977137        -3.717206
 H         1.846957         0.893860        -4.932316
 H         0.270000        -0.043114        -3.424065
 H         2.917173         1.684898        -0.971788
 H         4.326587         0.145696        -1.936381
 H         3.338719        -1.418882        -1.277939
 H         0.979309         1.002831         0.399337
