19
Iteration:  2264
 C         2.593427        -1.804475        -3.570818
 C         2.483818        -0.313075        -3.248029
 C         2.062452         0.860081        -4.143855
 C         1.147059         0.457445        -2.940806
 O         1.057769         0.991217        -1.631955
 C         2.374812         0.784251        -0.988040
 C         3.305842        -0.060567        -1.916778
 C         1.913308         0.249882         0.375310
 O         2.757559         0.261814         1.353292
 H         3.716869        -2.030974        -3.791628
 H         2.369699        -2.429063        -2.743235
 H         1.816860        -2.042992        -4.348566
 H         2.767176         1.629871        -4.156291
 H         1.651500         0.384193        -5.109204
 H         0.154035         0.032424        -3.316390
 H         2.756627         1.807549        -0.831965
 H         4.225270         0.473767        -2.192733
 H         3.599827        -1.068444        -1.416368
 H         0.952995        -0.142517         0.225356
