19
Iteration:  3907charge 0 multiplicity 1
 C         2.505972        -1.784416        -3.970245
 C         2.384059        -0.466520        -3.073792
 C         2.241364         0.777272        -4.000797
 C         1.198808         0.381426        -2.895102
 O         1.047100         0.974047        -1.657546
 C         2.223232         0.953335        -0.976829
 C         3.319233        -0.122445        -1.913177
 C         2.045073         0.342500         0.429316
 O         2.737589         0.312579         1.398260
 H         3.353578        -1.780639        -4.598021
 H         2.342018        -2.690750        -3.288706
 H         1.458812        -1.802187        -4.436633
 H         2.947755         1.671876        -4.060319
 H         2.114716         0.394092        -4.959242
 H         0.177753         0.162114        -3.204704
 H         2.683820         1.992677        -0.889109
 H         4.239139         0.417417        -2.012534
 H         3.611146        -0.991985        -1.224949
 H         1.127315        -0.191144         0.299673
