19
Iteration:  4335charge 0 multiplicity 1
 C         2.364919        -1.808392        -3.892178
 C         2.462393        -0.368703        -3.205006
 C         2.227545         0.962370        -3.938471
 C         1.251292         0.350934        -2.968081
 O         1.097965         0.937277        -1.615362
 C         2.407828         0.850527        -0.986238
 C         3.188490        -0.326700        -1.839626
 C         2.162203         0.235903         0.321964
 O         2.600063         0.570194         1.437161
 H         3.332100        -2.077297        -4.207711
 H         1.896914        -2.508804        -3.151200
 H         1.739547        -1.892176        -4.835810
 H         2.729613         1.863313        -3.891681
 H         1.845624         0.778491        -4.925474
 H         0.177097         0.028840        -3.237880
 H         3.033063         1.724184        -1.090358
 H         4.254371        -0.048460        -1.938604
 H         3.057884        -1.242266        -1.206025
 H         1.614619        -0.742888         0.098225
