19
Iteration:  2239charge 0 multiplicity 1
 C         2.507064        -1.754625        -3.651161
 C         2.431349        -0.358793        -3.132561
 C         2.120403         0.792505        -4.082305
 C         1.141757         0.327548        -2.969947
 O         1.136626         1.054622        -1.751356
 C         2.370734         0.846267        -0.993664
 C         3.256620         0.024628        -1.878025
 C         2.026385         0.150584         0.377157
 O         2.713370         0.289807         1.399060
 H         3.526722        -1.884810        -3.911498
 H         2.175714        -2.532232        -2.955874
 H         1.825759        -1.911782        -4.514833
 H         2.526854         1.915331        -3.966854
 H         1.743406         0.393616        -5.042092
 H         0.270620        -0.266559        -3.237859
 H         2.758741         1.862323        -0.711420
 H         4.235729         0.554248        -2.191302
 H         3.619556        -0.823293        -1.332088
 H         1.092129        -0.410881         0.130124
