19
Iteration:   653charge 0 multiplicity 1
 C         2.631022        -1.744569        -3.652959
 C         2.402109        -0.372201        -3.072006
 C         2.444813         0.918167        -3.828511
 C         1.179201         0.508437        -3.155526
 O         0.910042         0.981932        -1.801276
 C         2.062340         0.808815        -1.027198
 C         2.974997        -0.324140        -1.623118
 C         2.044255         0.317782         0.386635
 O         3.019209         0.308526         1.078136
 H         2.143471        -2.519847        -2.969417
 H         2.272010        -1.840215        -4.723130
 H         3.648240        -1.965554        -3.744549
 H         3.015137         1.785882        -3.371760
 H         2.391618         0.977397        -4.930702
 H         0.167416         0.295039        -3.544912
 H         2.594826         1.744047        -1.128704
 H         4.051951        -0.207627        -1.453131
 H         2.536084        -1.299613        -1.093625
 H         1.073643        -0.219913         0.848891
