19
Iteration:  2391charge 0 multiplicity 1
 C         2.656538        -1.838602        -3.873982
 C         2.420261        -0.403199        -3.132851
 C         2.210221         0.930338        -3.929403
 C         1.153240         0.350099        -3.014239
 O         0.962743         0.784854        -1.589028
 C         2.265105         0.890730        -1.062524
 C         3.162389        -0.208747        -1.757120
 C         2.029935         0.700164         0.464397
 O         2.819832         0.171952         1.231227
 H         3.693931        -1.984911        -4.049149
 H         2.318349        -2.701227        -3.156192
 H         2.198833        -1.817316        -4.900732
 H         2.807218         1.795162        -3.690957
 H         2.046167         0.869894        -5.076720
 H         0.102647         0.157645        -3.328961
 H         2.727047         1.897055        -1.137882
 H         4.224081         0.138066        -1.983972
 H         3.154284        -1.207374        -1.356267
 H         1.056000         1.222777         0.739141
