19
Iteration:   760
 C         2.573440        -1.624563        -4.141041
 C         2.427234        -0.470058        -3.208041
 C         2.248661         0.937487        -3.841511
 C         1.135616         0.404345        -2.945353
 O         1.160250         0.869430        -1.668451
 C         2.428529         0.669674        -1.058984
 C         3.037861        -0.593983        -1.684182
 C         2.043523         0.529893         0.402828
 O         2.661048         0.617185         1.485940
 H         2.786956        -2.685533        -3.721436
 H         1.689376        -1.790746        -4.872326
 H         3.541715        -1.396513        -4.572652
 H         2.744615         1.857518        -3.458161
 H         2.022997         0.833931        -4.956434
 H         0.114270         0.207633        -3.372633
 H         3.148462         1.522958        -1.343736
 H         4.112616        -0.621963        -1.528268
 H         2.746294        -1.518640        -1.310370
 H         0.840236         0.319480         0.444347
