19
Iteration:  3456
 C         2.695278        -1.782363        -3.643124
 C         2.440877        -0.289592        -3.126238
 C         2.032061         0.853854        -3.993413
 C         1.070351         0.267089        -2.963256
 O         1.043335         0.988933        -1.732648
 C         2.322927         0.840123        -1.054491
 C         3.279135         0.002170        -1.938010
 C         2.053531         0.394021         0.422473
 O         2.757240         0.082350         1.324240
 H         3.804127        -1.820365        -3.897731
 H         2.463936        -2.578719        -2.783221
 H         2.061872        -1.925699        -4.484332
 H         2.386776         1.837416        -3.827595
 H         1.744910         0.614435        -5.045232
 H         0.175263        -0.292186        -3.191450
 H         2.776777         1.845438        -1.023515
 H         4.029357         0.791934        -2.117646
 H         3.685895        -0.948587        -1.483871
 H         0.955975         0.643364         0.601110
