19
Iteration:  3288charge 0 multiplicity 1
 C         2.648893        -1.713741        -3.650418
 C         2.518746        -0.356756        -3.081180
 C         1.935089         0.715594        -4.027562
 C         1.189353         0.103477        -2.835317
 O         1.075958         1.064104        -1.768794
 C         2.332706         1.061831        -1.019632
 C         3.284551         0.167583        -1.783318
 C         2.007627         0.558074         0.436204
 O         2.746145        -0.213564         1.066118
 H         3.684492        -1.803020        -3.950678
 H         2.566342        -2.382639        -2.836013
 H         1.804302        -1.862012        -4.312222
 H         2.148932         1.722311        -3.890804
 H         1.827931         0.514443        -5.130334
 H         0.279200        -0.461029        -2.977513
 H         2.631247         2.103495        -1.046314
 H         4.274153         0.675114        -1.906495
 H         3.335320        -0.779230        -1.276850
 H         0.919485         0.955456         0.754794
