19
Iteration:  2267
 C         2.583925        -1.829150        -3.586987
 C         2.449105        -0.316341        -3.248747
 C         2.096450         0.881499        -4.130222
 C         1.153690         0.431114        -2.960103
 O         1.055465         0.987126        -1.639510
 C         2.396557         0.793194        -0.968281
 C         3.288482        -0.051670        -1.932505
 C         1.933631         0.252622         0.391330
 O         2.747827         0.259711         1.325433
 H         3.722386        -1.999386        -3.747334
 H         2.456104        -2.470921        -2.631267
 H         1.862679        -2.045317        -4.360357
 H         2.710585         1.727588        -4.171966
 H         1.632332         0.479030        -4.986997
 H         0.200648        -0.052408        -3.214716
 H         2.842158         1.776079        -0.824357
 H         4.141611         0.569743        -2.131245
 H         3.495779        -1.028656        -1.284265
 H         0.885938        -0.097352         0.263401
