19
Iteration:   268
 C         2.256587        -1.701707        -4.199594
 C         2.492271        -0.479335        -3.179348
 C         2.190439         0.988448        -3.838786
 C         1.283025         0.362803        -2.884569
 O         1.275252         0.794838        -1.546828
 C         2.564887         0.610977        -0.974088
 C         3.332538        -0.433664        -1.917194
 C         2.229230         0.181499         0.481717
 O         2.163783         0.984673         1.394936
 H         1.742563        -2.625524        -3.732546
 H         1.392938        -1.365600        -4.929464
 H         3.189096        -2.056224        -4.794015
 H         2.663065         1.773736        -3.333248
 H         2.050337         0.967214        -4.914966
 H         0.370386        -0.110269        -3.226542
 H         3.124407         1.595657        -0.909445
 H         4.339684         0.020282        -2.022103
 H         3.520820        -1.394520        -1.501195
 H         2.010803        -0.867775         0.609759
