19
Iteration:  4488charge 0 multiplicity 1
 C         2.569641        -1.714849        -4.000969
 C         2.373931        -0.430432        -3.134660
 C         2.324282         0.887608        -3.952069
 C         1.137019         0.460375        -3.075670
 O         0.985812         0.862826        -1.646755
 C         2.214058         0.748021        -1.074944
 C         3.042921        -0.379497        -1.776557
 C         2.049537         0.533464         0.511990
 O         2.932604         0.449605         1.439056
 H         3.643090        -1.688968        -4.249259
 H         2.407380        -2.791877        -3.549182
 H         1.932343        -1.689211        -4.958778
 H         2.999560         1.618636        -3.580067
 H         2.253573         0.503608        -4.931632
 H         0.261502         0.031484        -3.451845
 H         2.853788         1.614515        -1.125875
 H         4.161753        -0.180234        -1.654797
 H         2.956195        -1.404066        -1.231472
 H         0.923087         0.477501         0.757953
