19
Iteration:  4069charge 0 multiplicity 1
 C         2.597277        -1.621986        -3.961907
 C         2.488247        -0.374836        -3.149302
 C         2.325170         0.934883        -3.867166
 C         1.135282         0.393013        -3.007044
 O         0.935498         0.713132        -1.623160
 C         2.286662         0.788718        -1.083681
 C         2.989271        -0.385521        -1.780883
 C         2.077491         0.640611         0.451933
 O         2.921326         0.392961         1.332947
 H         3.552655        -1.862749        -4.433607
 H         2.370229        -2.546724        -3.385521
 H         1.685329        -1.724659        -4.565624
 H         2.790249         1.897961        -3.553946
 H         2.027625         0.852531        -4.928240
 H         0.268059        -0.142844        -3.533977
 H         2.904373         1.673954        -1.299874
 H         4.005759        -0.636420        -1.574435
 H         2.534076        -1.287117        -1.298187
 H         0.991223         0.323100         0.659090
