19
Iteration:  1561charge 0 multiplicity 1
 C         2.492442        -1.812934        -3.779564
 C         2.407512        -0.403453        -3.207822
 C         1.995182         0.837775        -4.082681
 C         1.152050         0.396242        -2.888691
 O         1.199629         0.969423        -1.590814
 C         2.467562         0.832510        -1.005620
 C         3.356878         0.021075        -2.061859
 C         2.272160         0.044216         0.373595
 O         2.364311         0.500117         1.542478
 H         3.528192        -2.066708        -4.136133
 H         2.163819        -2.472911        -2.971700
 H         1.905362        -1.909792        -4.631194
 H         2.763117         1.738420        -4.052211
 H         1.526528         0.642907        -5.066842
 H         0.107011         0.074981        -3.244872
 H         2.961095         1.748570        -0.815330
 H         4.397441         0.391693        -2.323337
 H         3.723844        -0.958359        -1.638739
 H         1.790093        -0.936019         0.160377
