19
Iteration:   728charge 0 multiplicity 1
 C         2.479550        -1.684801        -4.085216
 C         2.480235        -0.374860        -3.248853
 C         2.307084         0.889360        -3.886954
 C         1.196457         0.338675        -3.021876
 O         1.113686         0.827627        -1.656052
 C         2.367224         0.628199        -0.984836
 C         3.111769        -0.470065        -1.792123
 C         1.984776         0.579746         0.511237
 O         2.711090         0.562301         1.483250
 H         1.897277        -2.591711        -3.615291
 H         2.104586        -1.565134        -5.213218
 H         3.505343        -1.804559        -4.321040
 H         2.740595         1.811738        -3.445343
 H         2.148523         1.052895        -4.988003
 H         0.154292         0.055448        -3.286739
 H         2.841798         1.627530        -1.184551
 H         4.134955        -0.215385        -1.568272
 H         2.840883        -1.463095        -1.484721
 H         0.940021         0.718132         0.646727
