19
Iteration:  4859charge 0 multiplicity 1
 C         2.459990        -1.773872        -3.807462
 C         2.342270        -0.418827        -3.211775
 C         2.282896         0.854798        -3.947514
 C         1.143249         0.477467        -3.016778
 O         1.137878         0.951259        -1.636844
 C         2.379566         0.811345        -0.968847
 C         3.158912        -0.314284        -1.886134
 C         2.130157         0.243479         0.351437
 O         2.642199         0.535403         1.407812
 H         3.469151        -1.915167        -4.079016
 H         2.192408        -2.635477        -3.164587
 H         1.870161        -1.964607        -4.677960
 H         2.788171         1.801068        -3.540381
 H         2.027054         0.997779        -5.036712
 H         0.193270         0.136617        -3.447960
 H         2.926291         1.793159        -0.888510
 H         4.205236         0.026818        -2.028110
 H         3.223135        -1.239128        -1.261557
 H         1.481050        -0.599135         0.300111
