19
Iteration:  3359charge 0 multiplicity 1
 C         2.676663        -1.844412        -3.588177
 C         2.552145        -0.323234        -3.110609
 C         2.047133         0.747254        -3.988777
 C         1.078339         0.298988        -2.899513
 O         0.912832         1.025424        -1.724667
 C         2.254859         1.027615        -1.067798
 C         3.338395         0.123880        -1.792505
 C         2.047345         0.482522         0.441154
 O         2.797392        -0.162656         1.057268
 H         3.720103        -1.820500        -3.831493
 H         2.573978        -2.727074        -2.900027
 H         2.042879        -1.868802        -4.440222
 H         2.544430         1.779406        -4.052764
 H         1.674078         0.499192        -4.975733
 H         0.161606        -0.145273        -3.279116
 H         2.697669         2.051377        -0.938376
 H         4.230716         0.689398        -2.090705
 H         3.581347        -0.689914        -1.030996
 H         1.092065         1.000412         0.943288
