19
Iteration:  3300
 C         2.747193        -1.814989        -3.560790
 C         2.590479        -0.314337        -3.099051
 C         1.886135         0.824582        -3.988842
 C         1.076336         0.209018        -2.890912
 O         1.044187         1.059326        -1.756467
 C         2.338791         1.035734        -1.062234
 C         3.275331         0.078554        -1.827044
 C         2.090599         0.529763         0.386745
 O         2.690108        -0.193583         1.118249
 H         3.648675        -2.153563        -4.074265
 H         2.408756        -2.548841        -2.866520
 H         2.152764        -1.941421        -4.448048
 H         2.153661         1.804661        -3.813520
 H         1.515859         0.526887        -5.005984
 H         0.226400        -0.484977        -2.945882
 H         2.748957         2.055289        -0.986713
 H         4.159256         0.726640        -2.141947
 H         3.768910        -0.602504        -1.143568
 H         1.034573         0.913273         0.794903
