19
Iteration:   511charge 0 multiplicity 1
 C         2.595922        -1.693135        -3.940902
 C         2.469680        -0.426211        -3.142870
 C         2.268974         0.944349        -3.850422
 C         1.221674         0.355614        -3.021037
 O         0.999142         0.757625        -1.636908
 C         2.283837         0.842901        -1.116400
 C         3.066107        -0.423655        -1.700433
 C         2.070202         0.779079         0.409764
 O         2.711533         0.216805         1.322662
 H         2.317985        -2.637556        -3.436197
 H         2.280296        -1.653105        -5.023887
 H         3.722795        -1.793579        -4.143816
 H         2.895588         1.853832        -3.641287
 H         2.142033         0.824529        -4.974424
 H         0.293148         0.131176        -3.408772
 H         2.687218         1.873501        -1.227256
 H         4.089195        -0.122960        -1.758854
 H         2.935516        -1.380657        -1.140693
 H         1.168193         1.493419         0.796336
