19
Iteration:  2926
 C         2.597758        -1.634750        -3.993064
 C         2.459660        -0.394880        -3.164339
 C         2.226289         1.033551        -3.760726
 C         1.138216         0.297237        -3.022710
 O         0.903029         0.687412        -1.713438
 C         2.194369         0.735181        -0.968814
 C         3.066053        -0.413677        -1.758965
 C         2.025984         0.515222         0.460940
 O         3.021702         0.543556         1.248007
 H         3.667168        -2.053935        -3.788623
 H         1.929571        -2.421388        -3.609513
 H         2.563216        -1.556070        -5.098768
 H         2.631570         1.830314        -3.100648
 H         2.442000         1.152090        -4.762295
 H         0.257081         0.053001        -3.582752
 H         2.642328         1.748091        -1.135049
 H         4.189711        -0.156776        -1.796104
 H         2.994398        -1.380916        -1.228059
 H         1.011451         0.174531         0.700295
