19
Iteration:  1170charge 0 multiplicity 1
 C         2.439455        -1.743131        -3.968797
 C         2.409545        -0.381527        -3.197984
 C         2.389295         0.942494        -3.853796
 C         1.203140         0.357862        -2.997062
 O         0.872861         0.743541        -1.648224
 C         2.241036         0.698980        -0.991256
 C         3.130002        -0.261380        -1.810626
 C         2.111001         0.320974         0.486778
 O         2.887365         0.640606         1.299350
 H         3.499989        -2.262334        -3.916116
 H         1.523851        -2.247315        -3.690654
 H         2.502770        -1.557577        -5.048768
 H         2.994574         1.755057        -3.327536
 H         2.087249         1.039746        -4.904982
 H         0.312205         0.273634        -3.435064
 H         2.627520         1.724017        -1.049392
 H         4.097931         0.336321        -1.753016
 H         3.387797        -1.268918        -1.224315
 H         1.342170        -0.408894         0.588448
