19
Iteration:  3088charge 0 multiplicity 1
 C         2.728393        -1.705146        -3.656024
 C         2.493097        -0.312361        -3.119532
 C         2.038732         0.805813        -4.031440
 C         1.098551         0.248609        -2.981796
 O         0.982339         1.029366        -1.704782
 C         2.223486         0.886113        -0.964730
 C         3.207669        -0.039904        -1.850900
 C         2.017990         0.488572         0.502068
 O         2.881303        -0.002708         1.121037
 H         3.700412        -1.793498        -4.198070
 H         2.554873        -2.423996        -2.822938
 H         1.987417        -1.859705        -4.452113
 H         2.460660         1.767943        -3.858732
 H         1.834301         0.542470        -5.127673
 H         0.243892        -0.419002        -3.233394
 H         2.719423         1.907261        -0.856434
 H         4.310224         0.370150        -1.846347
 H         3.346695        -1.024225        -1.348186
 H         0.953581         0.778513         0.965340
