19
Iteration:  2439charge 0 multiplicity 1
 C         2.614467        -1.663301        -3.973219
 C         2.478999        -0.456275        -3.081532
 C         2.135834         0.931195        -3.786954
 C         1.144658         0.167412        -2.983755
 O         0.987157         0.743329        -1.742959
 C         2.333743         0.819214        -1.087165
 C         3.083878        -0.288408        -1.620080
 C         2.144993         0.932414         0.460880
 O         2.772168         0.146927         1.144718
 H         3.703829        -1.772755        -4.299040
 H         2.148822        -2.453196        -3.472011
 H         2.128780        -1.471545        -4.933872
 H         2.469537         1.894726        -3.267067
 H         2.233729         1.132813        -4.819077
 H         0.229384        -0.365637        -3.121180
 H         2.830410         1.803559        -1.214775
 H         4.113433        -0.020761        -1.501580
 H         3.046107        -1.213427        -0.995838
 H         1.330235         1.636560         0.712223
