19
Iteration:  1310
 C         2.507572        -1.643979        -4.037743
 C         2.491131        -0.451762        -3.164365
 C         2.271578         0.970381        -3.842152
 C         1.185257         0.277119        -2.995119
 O         0.999302         0.717755        -1.625115
 C         2.317300         0.861803        -1.049694
 C         3.050249        -0.428963        -1.755007
 C         2.026141         0.618030         0.464745
 O         2.885642         0.459270         1.368398
 H         3.627247        -1.853974        -4.378926
 H         2.058603        -2.511220        -3.496582
 H         1.960192        -1.474858        -4.922816
 H         2.750425         1.864365        -3.531650
 H         1.944174         0.973978        -4.976517
 H         0.376112        -0.047464        -3.524121
 H         2.727626         1.921083        -1.337665
 H         4.165052        -0.319544        -1.712928
 H         2.643874        -1.391400        -1.376853
 H         1.027780         0.312719         0.589022
