19
Iteration:  2000charge 0 multiplicity 1
 C         2.426494        -1.731384        -3.846086
 C         2.456721        -0.452893        -3.123705
 C         2.141678         0.833891        -3.882885
 C         1.095923         0.211660        -2.957266
 O         1.125014         0.979790        -1.703772
 C         2.419161         0.836477        -1.030160
 C         3.307753        -0.026899        -1.912124
 C         2.136591         0.232205         0.329363
 O         2.587857         0.441949         1.452699
 H         3.487593        -1.899728        -4.194180
 H         2.040856        -2.473346        -3.150589
 H         1.885814        -1.724583        -4.830604
 H         2.581177         1.721046        -3.579270
 H         1.962319         0.899547        -5.034547
 H         0.160851        -0.272714        -3.139855
 H         2.921786         1.845332        -1.115476
 H         4.238320         0.560496        -2.182793
 H         3.715480        -0.839050        -1.297263
 H         1.408474        -0.658015         0.284638
