19
Iteration:   155charge 0 multiplicity 1
 C         2.561658        -1.631513        -4.172754
 C         2.444663        -0.409194        -3.191473
 C         2.231049         0.943508        -3.913067
 C         1.182326         0.409029        -2.986682
 O         1.146432         0.802459        -1.640880
 C         2.349723         0.541137        -0.979106
 C         3.084279        -0.535696        -1.801244
 C         2.095855         0.289265         0.572002
 O         2.609252         0.911541         1.463928
 H         2.370419        -2.644138        -3.603827
 H         1.774424        -1.474071        -4.927967
 H         3.517370        -1.756959        -4.642440
 H         2.770173         1.923728        -3.818176
 H         2.072062         0.840990        -5.003994
 H         0.212594         0.047716        -3.397322
 H         2.903444         1.555434        -0.971785
 H         4.138537        -0.255841        -1.722282
 H         2.931716        -1.512565        -1.454092
 H         1.446645        -0.671091         0.714782
