19
Iteration:  3377charge 0 multiplicity 1
 C         2.642075        -1.692211        -3.618983
 C         2.518185        -0.323834        -3.001634
 C         2.045067         0.764516        -3.941855
 C         1.206004         0.150945        -2.928785
 O         1.017928         1.060473        -1.805382
 C         2.192276         0.936591        -0.969236
 C         3.204655         0.084059        -1.797176
 C         2.025574         0.534518         0.433740
 O         2.841195        -0.116951         0.935195
 H         3.618334        -2.135283        -3.992287
 H         2.558426        -2.456123        -2.813634
 H         1.736160        -1.911650        -4.201715
 H         2.296853         1.779648        -3.624958
 H         2.069256         0.594813        -4.964312
 H         0.289481        -0.468055        -2.958754
 H         2.570679         1.955302        -0.873101
 H         4.135132         0.703674        -1.930827
 H         3.494661        -0.695187        -1.076412
 H         1.105370         0.810711         0.886533
