19
Iteration:  1227
 C         2.613083        -1.649692        -4.002220
 C         2.462879        -0.406213        -3.175462
 C         2.311408         0.972494        -3.795976
 C         1.137304         0.447338        -2.984629
 O         0.927494         0.743952        -1.619810
 C         2.276858         0.714762        -1.064884
 C         2.948469        -0.501278        -1.818776
 C         2.178822         0.377680         0.457430
 O         2.877193         0.699787         1.340841
 H         3.588733        -1.789552        -4.441609
 H         2.545042        -2.598373        -3.471503
 H         1.751816        -1.725038        -4.746291
 H         2.922525         1.793030        -3.573461
 H         2.194067         0.951271        -4.937023
 H         0.159667         0.069875        -3.418295
 H         2.641142         1.747184        -1.271268
 H         4.016907        -0.497941        -1.517793
 H         2.390136        -1.404043        -1.450930
 H         1.396532        -0.356682         0.574125
