19
Iteration:  4231charge 0 multiplicity 1
 C         2.415895        -1.680829        -3.996950
 C         2.396823        -0.409766        -3.166468
 C         2.248186         0.881793        -3.899760
 C         1.136073         0.365259        -2.978493
 O         1.100037         0.862811        -1.683892
 C         2.434750         0.847850        -1.054730
 C         3.187344        -0.323073        -1.815259
 C         2.154548         0.233474         0.441667
 O         2.651719         0.620870         1.472594
 H         3.478906        -1.977725        -4.238306
 H         2.102319        -2.473945        -3.341586
 H         1.732013        -1.624352        -4.808437
 H         2.762585         1.764510        -3.577923
 H         2.018040         0.705283        -5.030896
 H         0.142222         0.162908        -3.401344
 H         2.948857         1.832180        -1.157422
 H         4.278035        -0.394483        -1.963566
 H         2.976623        -1.248330        -1.224929
 H         1.473345        -0.709141         0.434697
