19
Iteration:   463charge 0 multiplicity 1
 C         2.764582        -1.662890        -3.783957
 C         2.351606        -0.456779        -3.021127
 C         2.354026         0.919720        -3.795953
 C         1.186461         0.357089        -3.052470
 O         0.860057         0.956509        -1.883720
 C         2.172536         0.871538        -1.080765
 C         2.860124        -0.309422        -1.549953
 C         2.098976         0.643819         0.494164
 O         3.003405         0.100526         1.047321
 H         2.615527        -2.592609        -3.135299
 H         2.302030        -1.772959        -4.787335
 H         3.774189        -1.715796        -3.930608
 H         3.130442         1.622505        -3.486411
 H         2.138735         0.817378        -4.829360
 H         0.223575         0.034062        -3.607651
 H         2.694931         1.786146        -1.285354
 H         4.011855        -0.239099        -1.393907
 H         2.443312        -1.289832        -1.069268
 H         1.013358         0.816632         1.035824
