19
Iteration:   813charge 0 multiplicity 1
 C         2.536895        -1.729873        -3.972605
 C         2.444734        -0.461889        -3.190898
 C         2.471494         0.996871        -3.808583
 C         1.190228         0.505766        -3.129233
 O         0.924348         0.894560        -1.694402
 C         2.177342         0.708822        -0.977630
 C         2.934118        -0.443258        -1.715439
 C         2.123921         0.200313         0.488818
 O         2.841879         0.694857         1.342558
 H         2.512579        -2.577367        -3.278868
 H         1.676782        -1.525574        -4.608071
 H         3.384062        -2.003384        -4.706757
 H         3.111304         1.797383        -3.353742
 H         2.635144         0.959851        -4.970067
 H         0.324418         0.099235        -3.745319
 H         2.867896         1.596316        -0.919725
 H         4.083089        -0.290272        -1.773391
 H         2.778273        -1.494190        -1.273670
 H         1.440387        -0.559557         0.591568
