19
Iteration:  4883
 C         2.433888        -1.815017        -3.816459
 C         2.449468        -0.429927        -3.170496
 C         2.263586         0.935395        -3.828167
 C         1.161134         0.412413        -3.011791
 O         1.082978         1.061688        -1.719667
 C         2.304533         0.649163        -0.981460
 C         3.214544        -0.239274        -1.924513
 C         2.058900         0.132559         0.471299
 O         2.715916         0.608904         1.296531
 H         3.357204        -2.315789        -4.008862
 H         1.752886        -2.520188        -3.330384
 H         1.925215        -1.681663        -4.748583
 H         2.884118         1.859843        -3.592989
 H         2.054335         0.824490        -4.887666
 H         0.343144         0.031092        -3.500656
 H         2.895119         1.645702        -0.806108
 H         4.292268         0.172883        -1.965209
 H         3.320119        -1.069228        -1.240048
 H         1.383757        -0.666993         0.649991
