19
Iteration:  4670charge 0 multiplicity 1
 C         2.470490        -1.749402        -3.889695
 C         2.381553        -0.452981        -3.161611
 C         2.269506         0.930345        -3.981915
 C         1.179978         0.414567        -3.060097
 O         1.119589         0.900104        -1.715735
 C         2.281896         0.771516        -1.029384
 C         3.124228        -0.337471        -1.878209
 C         2.087008         0.379178         0.562247
 O         2.750288         0.508624         1.496423
 H         3.452522        -1.961927        -4.302818
 H         2.211537        -2.577236        -3.319575
 H         1.670765        -1.653286        -4.662130
 H         2.982704         1.721209        -3.750085
 H         2.192374         0.803282        -5.008985
 H         0.255997         0.140956        -3.504826
 H         2.840489         1.723133        -1.002048
 H         4.031655         0.124415        -2.104157
 H         3.345397        -1.300270        -1.378766
 H         1.187049        -0.282685         0.477555
