19
Iteration:  3881charge 0 multiplicity 1
 C         2.473813        -1.743094        -3.823728
 C         2.469839        -0.398893        -3.172223
 C         2.148750         0.881854        -3.944755
 C         1.131258         0.309063        -2.986461
 O         1.112237         0.989943        -1.699795
 C         2.368918         0.762653        -1.047645
 C         3.271454        -0.120262        -1.816443
 C         2.001356         0.236024         0.346585
 O         2.732282         0.417465         1.397002
 H         3.362038        -2.062946        -4.525749
 H         2.302694        -2.352362        -2.911489
 H         1.495063        -1.846483        -4.252643
 H         2.650786         1.691780        -3.473015
 H         2.087483         0.906050        -5.149364
 H         0.137899        -0.056007        -3.260600
 H         2.893266         1.702235        -0.913001
 H         4.242507         0.467108        -1.848409
 H         3.550384        -1.037396        -1.267771
 H         1.008075        -0.314934         0.442929
