19
Iteration:  1900charge 0 multiplicity 1
 C         2.513554        -1.637827        -4.034822
 C         2.470118        -0.386016        -3.093876
 C         2.297592         0.839333        -3.902501
 C         1.189891         0.333683        -2.955173
 O         0.965561         0.724548        -1.594727
 C         2.285167         0.840401        -1.026736
 C         3.131373        -0.299867        -1.743654
 C         1.973859         0.402902         0.387697
 O         2.860440         0.559042         1.291074
 H         3.557300        -1.831663        -4.280496
 H         2.240382        -2.639154        -3.621472
 H         1.995684        -1.269154        -4.844259
 H         2.948786         1.683468        -3.445276
 H         2.015223         0.870886        -4.904470
 H         0.268125        -0.073042        -3.513575
 H         2.832894         1.790251        -1.243023
 H         4.218824        -0.036232        -1.715429
 H         2.926686        -1.232398        -1.218525
 H         1.065890        -0.169800         0.740151
