19
Iteration:   787
 C         2.563080        -1.610507        -4.069968
 C         2.383046        -0.459233        -3.183817
 C         2.378074         0.942649        -3.776145
 C         1.147792         0.358941        -2.952169
 O         1.106564         0.974678        -1.713967
 C         2.294725         0.684351        -0.999140
 C         3.005188        -0.549608        -1.726322
 C         1.992680         0.292062         0.499576
 O         2.768195         0.695201         1.283210
 H         2.920760        -2.474289        -3.522964
 H         1.684019        -1.847704        -4.681551
 H         3.468899        -1.425170        -4.694814
 H         3.048062         1.744038        -3.484897
 H         2.260512         0.764101        -4.788259
 H         0.248986         0.190560        -3.463523
 H         2.965445         1.516032        -0.953103
 H         4.122312        -0.564614        -1.737950
 H         2.701924        -1.601816        -1.288765
 H         1.030450        -0.168658         0.667572
