19
Iteration:    81
 C         2.626091        -1.689383        -3.944065
 C         2.548447        -0.400607        -3.160194
 C         2.318174         0.926792        -3.830134
 C         1.228855         0.307120        -2.966077
 O         0.948891         0.791237        -1.736058
 C         2.060783         0.765614        -1.023480
 C         2.951843        -0.279943        -1.730424
 C         2.014259         0.493258         0.532873
 O         2.975130         0.463934         1.222919
 H         2.154848        -2.552590        -3.564372
 H         2.088495        -1.431404        -4.997652
 H         3.710420        -1.917156        -4.168658
 H         3.041646         1.756325        -3.604285
 H         2.149121         0.804644        -4.918194
 H         0.357179         0.063716        -3.602224
 H         2.639342         1.670172        -1.043520
 H         4.044808        -0.013952        -1.466856
 H         2.787909        -1.321235        -1.216366
 H         0.887868         0.125396         0.911006
