19
Iteration:  3738
 C         2.540181        -1.733538        -4.014845
 C         2.422189        -0.442820        -3.274729
 C         2.265204         1.064712        -3.886236
 C         1.148790         0.375455        -3.037823
 O         0.965925         0.711263        -1.615528
 C         2.388569         0.677903        -0.989147
 C         3.123245        -0.412910        -1.834308
 C         2.200637         0.306139         0.513461
 O         2.696520         0.787126         1.461434
 H         3.467167        -1.704309        -4.698999
 H         2.286575        -2.670080        -3.504917
 H         1.840189        -1.647155        -4.827051
 H         3.022625         1.713865        -3.347754
 H         1.995069         1.299411        -4.842016
 H         0.114574         0.166697        -3.456370
 H         2.849542         1.667168        -0.999509
 H         4.252144        -0.242495        -1.794058
 H         2.867408        -1.425356        -1.493151
 H         1.262653        -0.403766         0.385231
