19
Iteration:  4268
 C         2.501887        -1.714669        -3.946315
 C         2.448531        -0.386568        -3.239789
 C         2.108799         0.913414        -3.898312
 C         1.145095         0.347759        -2.878399
 O         1.221506         1.003100        -1.644168
 C         2.510907         0.724382        -1.014300
 C         3.187378        -0.419156        -1.892133
 C         2.002025         0.253499         0.410785
 O         2.634206         0.634922         1.399586
 H         3.371741        -1.810453        -4.542884
 H         2.552385        -2.499501        -3.121893
 H         1.715965        -2.018847        -4.726282
 H         2.615664         1.887735        -3.789570
 H         1.738036         0.817608        -4.829836
 H         0.152456         0.035765        -3.183576
 H         2.894792         1.721510        -0.798945
 H         4.260350        -0.364681        -1.873771
 H         2.687888        -1.312091        -1.393919
 H         1.095716        -0.533927         0.341915
