19
Iteration:   583
 C         2.517134        -1.624226        -3.953553
 C         2.444849        -0.414629        -3.146247
 C         2.287172         0.835866        -3.907594
 C         1.208786         0.288895        -2.909314
 O         1.133928         0.874045        -1.657274
 C         2.374686         0.820054        -1.088920
 C         3.163347        -0.342821        -1.858787
 C         1.965095         0.577744         0.436584
 O         2.636096         0.331518         1.390301
 H         2.356436        -2.502261        -3.260416
 H         1.845434        -1.681426        -4.855201
 H         3.545748        -1.759547        -4.453009
 H         2.707265         1.685586        -3.467831
 H         2.180919         0.871126        -4.998109
 H         0.219112        -0.053748        -3.280771
 H         2.930170         1.818217        -1.134378
 H         4.258672        -0.094188        -1.851093
 H         2.915002        -1.226781        -1.263134
 H         0.813777         0.699500         0.635600
