19
Iteration:  3087charge 0 multiplicity 1
 C         2.721934        -1.703460        -3.666350
 C         2.491699        -0.312962        -3.109388
 C         2.042254         0.806273        -4.031956
 C         1.100712         0.239944        -2.982957
 O         0.990108         1.026355        -1.709558
 C         2.222130         0.884028        -0.954048
 C         3.212532        -0.038402        -1.847185
 C         2.009378         0.494017         0.495907
 O         2.883368        -0.000160         1.118977
 H         3.685233        -1.828955        -4.190077
 H         2.592640        -2.450283        -2.828291
 H         1.971824        -1.843631        -4.446609
 H         2.474821         1.782419        -3.819397
 H         1.813315         0.573016        -5.111382
 H         0.243572        -0.411872        -3.218135
 H         2.701228         1.912997        -0.865808
 H         4.271427         0.403377        -1.874293
 H         3.320787        -1.028057        -1.374108
 H         0.967248         0.771150         0.982085
