19
Iteration:  2461charge 0 multiplicity 1
 C         2.766336        -1.694403        -3.897162
 C         2.474817        -0.403675        -3.178571
 C         2.189837         0.897280        -3.869623
 C         1.091928         0.283241        -2.929769
 O         0.898094         0.811276        -1.578256
 C         2.284060         0.790353        -1.150601
 C         3.068023        -0.381625        -1.793331
 C         2.166158         0.855143         0.493262
 O         2.769037         0.174634         1.235927
 H         3.806107        -1.684599        -4.399182
 H         2.494887        -2.492536        -3.255889
 H         2.169677        -1.618209        -4.796652
 H         2.668530         1.935913        -3.872276
 H         2.050524         0.758334        -4.912677
 H         0.149723        -0.063916        -3.338052
 H         2.745161         1.789909        -1.315032
 H         4.121796        -0.315003        -1.617605
 H         2.763819        -1.288043        -1.201543
 H         1.481205         1.773310         0.760831
