19
Iteration:  1604
 C         2.426492        -1.760079        -3.851126
 C         2.550226        -0.366195        -3.140055
 C         1.974246         0.856876        -3.842520
 C         1.203215         0.242423        -2.758919
 O         1.209042         1.037283        -1.669309
 C         2.480556         0.791562        -1.034326
 C         3.383989        -0.042057        -1.927820
 C         2.085119         0.070856         0.256425
 O         2.448748         0.534875         1.292286
 H         3.257836        -1.920485        -4.599062
 H         2.330288        -2.647249        -3.140478
 H         1.614810        -1.702555        -4.524180
 H         2.300592         1.931320        -3.892284
 H         1.659030         0.680012        -4.842582
 H         0.402309        -0.536577        -2.920654
 H         2.801594         1.729223        -0.689788
 H         4.432053         0.318526        -2.042852
 H         3.646431        -1.002795        -1.393372
 H         1.407808        -0.771246         0.320748
