19
Iteration:  4573
 C         2.637746        -1.802475        -3.914525
 C         2.398419        -0.436030        -3.211399
 C         2.373048         0.937789        -3.916193
 C         1.169768         0.465450        -3.088023
 O         0.870688         0.810789        -1.668839
 C         2.209126         0.803723        -0.944932
 C         2.970214        -0.355012        -1.705079
 C         2.058587         0.533271         0.511797
 O         3.005210         0.409695         1.252421
 H         3.653432        -2.087532        -4.028861
 H         2.115913        -2.609860        -3.425972
 H         2.170025        -1.656983        -4.915777
 H         3.096684         1.574729        -3.514701
 H         2.241139         1.239944        -4.929917
 H         0.285375         0.311984        -3.631074
 H         2.817896         1.764581        -1.029104
 H         3.995086        -0.371104        -1.590719
 H         2.488548        -1.195641        -1.228842
 H         0.945712         0.479992         0.838468
