19
Iteration:  3562charge 0 multiplicity 1
 C         2.718100        -1.691056        -3.796162
 C         2.442465        -0.344229        -3.162153
 C         2.236908         0.929933        -3.962339
 C         1.125260         0.404322        -2.983258
 O         0.917504         0.803055        -1.659463
 C         2.183940         0.773753        -1.043051
 C         3.044828        -0.254138        -1.804779
 C         2.015383         0.430882         0.481309
 O         2.987132         0.369641         1.224456
 H         3.750395        -1.754430        -4.238400
 H         2.693028        -2.421793        -3.018003
 H         1.842298        -1.814582        -4.453539
 H         2.736915         1.855084        -3.719641
 H         2.030038         0.734808        -5.044136
 H         0.236830        -0.006241        -3.461129
 H         2.627546         1.816975        -1.030350
 H         4.131950        -0.191966        -1.638412
 H         2.927284        -1.165917        -1.189291
 H         0.973458        -0.067664         0.656239
