19
Iteration:  2408charge 0 multiplicity 1
 C         2.575960        -1.643296        -3.933402
 C         2.513648        -0.473639        -3.120447
 C         2.242773         0.827236        -3.823645
 C         1.164397         0.292972        -2.866085
 O         0.939473         0.751558        -1.642127
 C         2.293175         0.849632        -1.069787
 C         3.150860        -0.214959        -1.736975
 C         2.086084         0.803510         0.396471
 O         2.769532         0.172428         1.142299
 H         3.660372        -2.045689        -4.056563
 H         2.177518        -2.502008        -3.444457
 H         2.147511        -1.340087        -4.864134
 H         2.878683         1.718571        -3.614226
 H         1.871471         0.716838        -4.771948
 H         0.332627        -0.189407        -3.328944
 H         2.696801         1.879342        -1.293106
 H         4.108106         0.252259        -1.722504
 H         2.974054        -1.121722        -1.039479
 H         1.109569         1.276279         0.638640
