19
Iteration:  2222
 C         2.503880        -1.819155        -3.765133
 C         2.470986        -0.420747        -3.075903
 C         2.084376         0.782846        -3.964024
 C         1.135892         0.248082        -2.902521
 O         1.137321         1.154173        -1.787320
 C         2.288439         0.957372        -0.961560
 C         3.329462         0.011822        -1.893465
 C         2.051880         0.134329         0.278379
 O         2.681816         0.302746         1.349714
 H         3.559614        -2.190493        -4.072002
 H         2.202470        -2.550260        -3.002267
 H         1.737801        -1.715829        -4.550923
 H         2.536966         1.570035        -3.572501
 H         2.103473         0.741950        -5.063826
 H         0.081701        -0.111967        -2.960540
 H         2.840494         1.864596        -0.750585
 H         4.095612         0.718751        -2.071516
 H         3.641209        -0.874560        -1.233284
 H         1.339384        -0.750287         0.346416
