19
Iteration:  1232charge 0 multiplicity 1
 C         2.624894        -1.660419        -4.028507
 C         2.481430        -0.446029        -3.204468
 C         2.300636         0.952876        -3.816341
 C         1.084069         0.450699        -2.958406
 O         0.962696         0.732084        -1.631511
 C         2.304482         0.716242        -1.058279
 C         2.909107        -0.478248        -1.813004
 C         2.136348         0.433687         0.457687
 O         2.893132         0.689914         1.386233
 H         3.590474        -1.633024        -4.629196
 H         2.643970        -2.595533        -3.391803
 H         1.862359        -1.697969        -4.805842
 H         2.941531         1.864125        -3.498065
 H         2.077737         0.908265        -4.833040
 H         0.134251         0.244459        -3.504838
 H         2.784261         1.708445        -1.244844
 H         3.960482        -0.619136        -1.573612
 H         2.538716        -1.443176        -1.446117
 H         1.307913        -0.365070         0.577016
