19
Iteration:  1811
 C         2.721111        -1.509648        -4.086982
 C         2.417855        -0.478175        -3.016588
 C         2.282235         0.837533        -3.714479
 C         1.112223         0.237768        -3.017370
 O         0.932200         0.775999        -1.660009
 C         2.202635         0.810400        -1.088382
 C         2.910565        -0.386339        -1.604421
 C         2.060024         0.644114         0.413303
 O         2.990077         0.431173         1.155498
 H         3.803259        -1.544361        -4.203559
 H         2.573199        -2.583402        -3.705360
 H         2.364547        -1.387670        -5.038227
 H         2.925697         1.669803        -3.447738
 H         2.311807         0.942461        -4.776799
 H         0.159919        -0.038639        -3.415008
 H         2.783382         1.806110        -1.279083
 H         3.992434        -0.452515        -1.527771
 H         2.519151        -1.319150        -1.170353
 H         0.954083         0.462288         0.677360
