19
Iteration:  1300
 C         2.488519        -1.621276        -4.097878
 C         2.488318        -0.410813        -3.149331
 C         2.191850         0.960830        -3.835882
 C         1.220960         0.259099        -2.976147
 O         1.028982         0.765857        -1.645583
 C         2.357965         0.747825        -1.037522
 C         3.041381        -0.434121        -1.689194
 C         2.038801         0.610539         0.464423
 O         2.835402         0.517756         1.333431
 H         3.588035        -1.678038        -4.644021
 H         2.356082        -2.663246        -3.788510
 H         1.875909        -1.411010        -4.936198
 H         2.608666         1.830053        -3.412352
 H         2.167406         0.825864        -5.008025
 H         0.358063        -0.191874        -3.293068
 H         2.931759         1.737441        -1.299879
 H         4.165923        -0.558471        -1.622131
 H         2.798780        -1.485723        -1.168972
 H         1.012226         0.455743         0.695262
