19
Iteration:  3822
 C         2.567316        -1.738011        -3.937513
 C         2.342497        -0.509336        -3.127336
 C         2.179174         0.831587        -3.928273
 C         1.164406         0.427622        -2.994893
 O         0.999703         1.011218        -1.663649
 C         2.401796         0.859607        -1.039283
 C         3.169772        -0.219861        -1.890083
 C         2.184799         0.181562         0.382614
 O         2.667050         0.515923         1.504161
 H         3.587036        -2.081564        -3.800087
 H         1.999919        -2.598382        -3.528289
 H         2.311679        -1.647650        -5.032117
 H         2.741552         1.805122        -3.803431
 H         1.876623         0.779762        -4.966454
 H         0.154960         0.081652        -3.300484
 H         3.023575         1.768492        -1.000697
 H         4.192189         0.088433        -2.091686
 H         3.263756        -1.071481        -1.219450
 H         1.680302        -0.805686         0.382439
