19
Iteration:  1510
 C         2.502683        -1.715004        -3.721555
 C         2.407253        -0.361984        -3.117633
 C         2.040334         0.836653        -3.920093
 C         1.066786         0.303811        -2.838085
 O         1.157556         1.041125        -1.697191
 C         2.511332         0.816959        -1.005393
 C         3.370160        -0.118662        -1.920933
 C         2.162377         0.061109         0.246588
 O         2.458293         0.485033         1.312215
 H         3.538588        -1.837025        -4.173120
 H         2.350769        -2.406756        -2.927978
 H         1.830042        -1.843696        -4.611350
 H         2.448428         1.809484        -3.691432
 H         1.764786         0.897885        -5.003529
 H         0.108180        -0.213125        -3.024163
 H         3.058140         1.793236        -0.742372
 H         4.352313         0.240837        -2.229700
 H         3.679189        -1.017744        -1.464951
 H         1.899479        -0.966209         0.017268
