19
Iteration:  3322charge 0 multiplicity 1
 C         2.745309        -1.738133        -3.494828
 C         2.404268        -0.371419        -3.124733
 C         2.021300         0.814137        -4.047671
 C         1.057386         0.263102        -2.829479
 O         1.036262         0.991523        -1.630627
 C         2.413673         0.919762        -1.050165
 C         3.294260         0.112921        -2.006287
 C         2.023608         0.517876         0.394943
 O         2.667700        -0.140499         1.090007
 H         3.828684        -1.737442        -3.687508
 H         2.469076        -2.470030        -2.765790
 H         2.666241        -2.159473        -4.470016
 H         2.554201         1.680571        -3.858400
 H         1.583531         0.561249        -5.034609
 H         0.024510        -0.072090        -3.049232
 H         2.707649         1.964674        -1.019546
 H         4.201579         0.756394        -2.236990
 H         3.772976        -0.697592        -1.432221
 H         1.027813         1.061262         0.756942
