19
Iteration:  3933
 C         2.559319        -1.784385        -3.799554
 C         2.393582        -0.406191        -3.096030
 C         2.181306         0.862227        -3.940658
 C         1.154460         0.368009        -2.952684
 O         1.072422         0.990868        -1.750981
 C         2.340594         0.831165        -0.984608
 C         3.151728        -0.129626        -1.855772
 C         2.038486         0.317293         0.383492
 O         2.809153         0.307999         1.329104
 H         3.541377        -1.711963        -4.290660
 H         2.463323        -2.669330        -3.207323
 H         1.768087        -1.838727        -4.527647
 H         2.619089         1.817919        -3.804146
 H         1.966351         0.735840        -5.032025
 H         0.153554        -0.054097        -3.200589
 H         2.824851         1.790323        -0.762963
 H         4.230506         0.150858        -1.942481
 H         3.168581        -1.040417        -1.283329
 H         0.953344         0.076785         0.412723
