19
Iteration:  2851charge 0 multiplicity 1
 C         2.600458        -1.549974        -4.175911
 C         2.450957        -0.516602        -3.102174
 C         2.308838         0.866680        -3.618369
 C         1.028085         0.294144        -2.993195
 O         0.973612         0.856910        -1.672152
 C         2.238705         0.762694        -1.078248
 C         3.072760        -0.478792        -1.744754
 C         2.116707         0.316030         0.399756
 O         2.855947         0.764021         1.329694
 H         3.483705        -1.515183        -4.833316
 H         2.607023        -2.571708        -3.777727
 H         1.781123        -1.340308        -4.899431
 H         2.827051         1.711567        -3.138816
 H         2.440281         0.941132        -4.650445
 H         0.215048        -0.243485        -3.391701
 H         2.876560         1.660018        -1.197236
 H         4.152600        -0.181111        -1.659059
 H         2.886296        -1.425738        -1.138649
 H         1.280405        -0.549050         0.586663
