19
Iteration:  1279charge 0 multiplicity 1
 C         2.598574        -1.502659        -4.138305
 C         2.452625        -0.464153        -3.150210
 C         2.209571         0.865353        -3.756470
 C         1.069680         0.248859        -2.965791
 O         1.109889         0.906586        -1.676234
 C         2.319847         0.591125        -1.000593
 C         3.071876        -0.565090        -1.739058
 C         1.994119         0.590415         0.464531
 O         2.854065         0.613964         1.337685
 H         3.506549        -1.494075        -4.915513
 H         2.651398        -2.466319        -3.619696
 H         1.761418        -1.536210        -4.784208
 H         2.515262         1.791144        -3.376715
 H         1.957864         0.759485        -4.888205
 H         0.154148         0.031959        -3.395967
 H         2.857103         1.532522        -1.111177
 H         4.202328        -0.418387        -1.650904
 H         3.124673        -1.730969        -1.488159
 H         0.880240         0.780155         0.747036
