19
Iteration:  3106
 C         2.801216        -1.715608        -3.595466
 C         2.464995        -0.284553        -3.113272
 C         1.986795         0.801455        -4.103793
 C         1.065564         0.379620        -2.950261
 O         0.945397         0.995518        -1.712926
 C         2.292318         0.953497        -1.068937
 C         3.163847        -0.043595        -1.781169
 C         2.123245         0.440918         0.415508
 O         2.864615        -0.085565         1.207163
 H         3.846813        -1.904413        -3.557565
 H         2.613853        -2.418482        -2.740233
 H         2.417351        -2.104094        -4.537368
 H         2.425143         1.843548        -4.239390
 H         1.573859         0.358849        -4.977465
 H         0.085437         0.016222        -3.174123
 H         2.617164         1.975778        -1.180743
 H         4.064144         0.392839        -1.934936
 H         3.093840        -0.993647        -1.277318
 H         1.151977         0.624778         0.735235
