19
Iteration:  2840
 C         2.583109        -1.571398        -4.181179
 C         2.423165        -0.442117        -3.096114
 C         2.265085         0.866771        -3.777695
 C         1.201371         0.248262        -2.911380
 O         0.981644         0.869901        -1.648560
 C         2.308109         0.675364        -0.997821
 C         3.050261        -0.429993        -1.736340
 C         2.121281         0.339618         0.433148
 O         2.781710         0.761218         1.289286
 H         3.559456        -1.309527        -4.585823
 H         2.431919        -2.599283        -3.844952
 H         1.725790        -1.535753        -4.884023
 H         2.607482         1.703458        -3.167507
 H         2.296269         0.971369        -4.817942
 H         0.271253        -0.034959        -3.315093
 H         2.783386         1.671984        -1.094331
 H         4.150396        -0.408508        -1.937693
 H         2.839864        -1.455851        -1.281880
 H         1.316114        -0.587079         0.554069
