19
Iteration:   840
 C         2.416944        -1.702728        -3.842382
 C         2.410505        -0.420971        -3.188786
 C         2.494105         1.008658        -3.820138
 C         1.292166         0.531211        -3.066550
 O         0.961729         0.687258        -1.683133
 C         2.171966         0.715167        -1.047626
 C         3.021385        -0.355981        -1.733185
 C         2.084282         0.297159         0.370774
 O         2.837250         0.624430         1.323898
 H         1.845283        -2.472944        -3.181953
 H         2.095922        -1.417574        -4.888827
 H         3.365279        -2.105701        -4.015941
 H         3.221761         1.687710        -3.409293
 H         2.281154         1.301696        -4.778219
 H         0.480585         0.286091        -3.676807
 H         2.721857         1.659927        -1.096688
 H         4.047321        -0.221110        -1.675615
 H         2.746732        -1.275272        -1.333224
 H         1.337771        -0.556253         0.401854
