19
Iteration:  4653
 C         2.465435        -1.766881        -3.965831
 C         2.454156        -0.403735        -3.184459
 C         2.254064         0.893123        -3.918024
 C         1.145340         0.396132        -2.999852
 O         1.023994         0.906134        -1.695781
 C         2.446501         0.807174        -1.034583
 C         3.150519        -0.330628        -1.787778
 C         2.093155         0.398146         0.451260
 O         2.718434         0.475017         1.423967
 H         3.512534        -1.753575        -4.347588
 H         2.356839        -2.612310        -3.169255
 H         1.718691        -1.910677        -4.755058
 H         2.716904         1.840056        -3.541521
 H         1.944276         0.848754        -5.021883
 H         0.197365         0.028508        -3.521459
 H         3.021760         1.766306        -1.123093
 H         4.297557        -0.426778        -1.716540
 H         2.850334        -1.201963        -1.146764
 H         1.021135         0.149222         0.627926
