19
Iteration:  1427
 C         2.664598        -1.801485        -3.784587
 C         2.413776        -0.433151        -3.130610
 C         2.055262         0.921181        -3.970724
 C         1.114908         0.357253        -2.912406
 O         1.097940         1.070922        -1.712863
 C         2.288690         0.861285        -0.976134
 C         3.252884        -0.205375        -1.853790
 C         1.916344         0.309488         0.381553
 O         2.818984         0.299977         1.268100
 H         3.604824        -1.736259        -4.215764
 H         2.757921        -2.616289        -2.985551
 H         1.966929        -2.218560        -4.581221
 H         2.648675         1.789157        -3.708737
 H         1.813370         0.731999        -5.085502
 H         0.184838        -0.008098        -3.185521
 H         2.866802         1.741318        -0.867289
 H         4.179895         0.360173        -2.080377
 H         3.468666        -1.163290        -1.173207
 H         0.982755        -0.178919         0.618543
