19
Iteration:  1712
 C         2.431527        -1.706184        -3.824550
 C         2.490750        -0.418087        -3.116450
 C         2.171523         0.921571        -3.840406
 C         1.156574         0.243953        -2.977254
 O         0.986985         0.843079        -1.676259
 C         2.354129         0.824740        -1.037974
 C         3.345710        -0.059163        -1.856048
 C         1.961684         0.244619         0.323448
 O         2.800209         0.471430         1.303272
 H         3.491247        -2.158562        -4.020160
 H         1.959256        -2.586372        -3.150346
 H         1.922561        -1.581457        -4.781199
 H         2.550015         1.808073        -3.391137
 H         2.302731         0.882687        -4.977884
 H         0.290963        -0.249865        -3.405976
 H         2.755097         1.859736        -0.824541
 H         4.275311         0.476285        -2.052795
 H         3.468670        -1.018276        -1.242268
 H         1.070058        -0.339430         0.425867
