19
Iteration:  1938
 C         2.655217        -1.705328        -3.825105
 C         2.372794        -0.443731        -3.148541
 C         2.160205         0.899332        -3.898936
 C         1.050661         0.339788        -3.084807
 O         1.083925         1.040451        -1.773884
 C         2.272214         0.703937        -1.009673
 C         3.121775        -0.259143        -1.856804
 C         2.058039         0.167327         0.496849
 O         2.854435         0.588445         1.417514
 H         3.684160        -1.584279        -4.269201
 H         2.421756        -2.631801        -3.292587
 H         1.993886        -1.908730        -4.768529
 H         2.500976         1.787629        -3.380673
 H         2.105608         0.957905        -5.021788
 H         0.139636        -0.118146        -3.410081
 H         2.801179         1.676123        -0.746619
 H         4.142837         0.097212        -1.923754
 H         3.189084        -1.319514        -1.502824
 H         1.340658        -0.692053         0.605415
