19
Iteration:  3254charge 0 multiplicity 1
 C         2.735100        -1.762468        -3.643606
 C         2.476425        -0.382877        -2.964136
 C         1.989137         0.692955        -3.985948
 C         1.159465         0.268679        -2.850834
 O         0.961638         1.094237        -1.702790
 C         2.287197         0.999045        -1.048855
 C         3.266414         0.126721        -1.743722
 C         2.039158         0.579375         0.331946
 O         2.774225        -0.199432         0.974797
 H         3.432553        -1.664985        -4.482286
 H         3.059339        -2.455710        -2.909961
 H         1.916367        -2.298258        -4.178804
 H         2.452419         1.697690        -3.865993
 H         1.672011         0.251941        -4.914024
 H         0.228777        -0.064957        -3.242242
 H         2.805381         1.950787        -1.016458
 H         4.225898         0.658061        -1.916547
 H         3.665279        -0.673913        -1.151540
 H         0.954174         0.753956         0.839169
