19
Iteration:  1385
 C         2.581144        -1.726221        -3.682998
 C         2.454496        -0.379098        -3.052005
 C         2.270557         0.897471        -3.962340
 C         1.183724         0.350652        -3.035836
 O         0.892286         0.928475        -1.759950
 C         2.148316         1.000378        -1.055029
 C         3.047270        -0.187888        -1.623691
 C         2.089507         0.328486         0.380552
 O         3.033515         0.205511         1.169173
 H         3.615516        -2.001136        -3.774466
 H         2.029875        -2.509160        -3.117856
 H         2.078530        -1.634958        -4.611991
 H         2.700361         1.881892        -3.819676
 H         2.203523         0.836828        -5.129378
 H         0.324382        -0.073093        -3.416895
 H         2.473007         2.020504        -1.122304
 H         4.091820         0.099642        -1.758465
 H         2.895836        -1.099225        -1.179825
 H         1.104021        -0.331433         0.417842
