19
Iteration:  1313
 C         2.524378        -1.658499        -4.026936
 C         2.484746        -0.433370        -3.164118
 C         2.281684         0.953947        -3.841721
 C         1.179966         0.293339        -2.993580
 O         0.989648         0.706605        -1.632113
 C         2.295122         0.868594        -1.055362
 C         3.064818        -0.414323        -1.778060
 C         2.036894         0.605990         0.459815
 O         2.896511         0.451918         1.372799
 H         3.628660        -1.943463        -4.296922
 H         2.023888        -2.433137        -3.452052
 H         1.908927        -1.492313        -4.928934
 H         2.818630         1.885935        -3.574572
 H         1.970788         1.029391        -4.893948
 H         0.243995         0.003743        -3.529793
 H         2.745191         1.860057        -1.279306
 H         4.165772        -0.236453        -1.706800
 H         2.571593        -1.397443        -1.277999
 H         0.965306         0.335578         0.558307
