19
Iteration:  2237
 C         2.503112        -1.754716        -3.659498
 C         2.433865        -0.366593        -3.131928
 C         2.114026         0.798089        -4.077452
 C         1.140831         0.306271        -2.952900
 O         1.140058         1.068810        -1.757464
 C         2.377828         0.856241        -0.995339
 C         3.244623         0.034973        -1.859591
 C         2.037221         0.153680         0.394363
 O         2.705629         0.289079         1.383342
 H         3.501994        -1.902284        -3.988814
 H         2.132292        -2.577018        -2.964217
 H         1.870562        -1.940362        -4.519020
 H         2.539859         1.880356        -3.936943
 H         1.844943         0.440289        -5.062132
 H         0.305557        -0.271665        -3.264102
 H         2.704897         1.871282        -0.700427
 H         4.200497         0.494681        -2.247627
 H         3.686824        -0.825181        -1.373808
 H         1.089660        -0.485790         0.095906
