19
Iteration:  1454charge 0 multiplicity 1
 C         2.559884        -1.730649        -3.834162
 C         2.443234        -0.403335        -3.162750
 C         2.054306         0.792367        -4.098902
 C         1.118788         0.303503        -2.889801
 O         1.192067         1.042660        -1.679886
 C         2.396251         0.711030        -0.983853
 C         3.286947        -0.101998        -1.981139
 C         2.015943         0.281664         0.470232
 O         2.626299         0.370729         1.470500
 H         3.564263        -1.688947        -4.462019
 H         2.670897        -2.561320        -3.195342
 H         1.707793        -1.900435        -4.442143
 H         2.471214         1.899367        -3.864017
 H         1.946845         0.644453        -5.152854
 H         0.066078        -0.161987        -3.079511
 H         3.039075         1.644955        -0.784623
 H         3.987456         0.647877        -2.366598
 H         3.650390        -0.904704        -1.475481
 H         0.922556         0.273748         0.606251
