19
Iteration:  4744
 C         2.438570        -1.800884        -3.777145
 C         2.438838        -0.446866        -3.209254
 C         2.228130         0.960717        -3.960746
 C         1.196360         0.394499        -2.988265
 O         1.088061         0.943904        -1.672657
 C         2.442204         0.879523        -1.086856
 C         3.093163        -0.292365        -1.869955
 C         2.145984         0.297276         0.379109
 O         2.624962         0.480312         1.489103
 H         3.563930        -2.078631        -3.967410
 H         1.930300        -2.620261        -3.206116
 H         1.823715        -1.651045        -4.726707
 H         2.865656         1.783517        -3.670208
 H         2.065938         0.885520        -4.976092
 H         0.250131         0.036601        -3.182155
 H         2.962881         1.804808        -1.129899
 H         4.190284        -0.105315        -2.017289
 H         3.113369        -1.312812        -1.391155
 H         1.646831        -0.681369         0.030755
