19
Iteration:  1226
 C         2.605693        -1.649743        -3.999450
 C         2.456597        -0.395664        -3.173188
 C         2.312091         0.974733        -3.793617
 C         1.145524         0.442436        -2.993681
 O         0.921782         0.746454        -1.617229
 C         2.270774         0.716480        -1.065272
 C         2.956874        -0.501916        -1.814240
 C         2.185116         0.366296         0.449665
 O         2.877600         0.703810         1.335924
 H         3.615676        -1.807004        -4.432196
 H         2.515260        -2.589910        -3.474571
 H         1.768498        -1.728616        -4.717205
 H         2.925211         1.789090        -3.573831
 H         2.207857         0.957738        -4.945540
 H         0.213778         0.059714        -3.385522
 H         2.627593         1.722569        -1.267395
 H         4.042670        -0.479065        -1.519557
 H         2.359085        -1.424062        -1.424682
 H         1.369314        -0.384881         0.586259
