19
Iteration:  4151
 C         2.525591        -1.748833        -3.964244
 C         2.523779        -0.395212        -3.160200
 C         2.238392         1.003181        -3.841528
 C         1.163926         0.439057        -3.023281
 O         0.975110         0.733584        -1.650680
 C         2.274681         0.880684        -1.006218
 C         3.014670        -0.460760        -1.757273
 C         2.124053         0.381929         0.380567
 O         2.885800         0.571417         1.369915
 H         3.503080        -2.108270        -4.317322
 H         2.054473        -2.487879        -3.319361
 H         2.063630        -1.553369        -4.917447
 H         2.821847         1.979917        -3.649214
 H         2.177699         0.932539        -4.877105
 H         0.295237         0.225833        -3.619443
 H         2.870717         1.786626        -1.207299
 H         4.127003        -0.590732        -1.588667
 H         2.404057        -1.275624        -1.395077
 H         1.155783        -0.244375         0.518334
