19
Iteration:  3225charge 0 multiplicity 1
 C         2.819066        -1.784013        -3.456955
 C         2.389840        -0.370454        -3.118946
 C         2.025996         0.843045        -3.933326
 C         1.052590         0.281100        -2.954351
 O         1.003284         1.016742        -1.690937
 C         2.347375         0.989856        -1.083180
 C         3.181718         0.088448        -1.946282
 C         2.062403         0.530481         0.448194
 O         2.763643        -0.186169         1.048608
 H         3.610950        -2.032470        -4.245420
 H         3.161186        -2.262453        -2.491226
 H         1.979652        -2.406962        -3.834952
 H         2.386894         1.719484        -3.509732
 H         1.934483         0.765991        -5.059371
 H         0.051234        -0.019518        -3.319813
 H         2.945256         1.964979        -1.130825
 H         4.002836         0.798623        -2.361811
 H         3.621132        -0.830400        -1.367667
 H         1.106151         0.797293         0.786941
