19
Iteration:   117charge 0 multiplicity 1
 C         2.551020        -1.675519        -4.030618
 C         2.440519        -0.448081        -3.133004
 C         2.251333         1.056947        -3.690871
 C         1.174762         0.375043        -3.005244
 O         1.064310         0.679570        -1.677579
 C         2.326009         0.644794        -1.102508
 C         3.146708        -0.452542        -1.785659
 C         2.030392         0.511669         0.399139
 O         2.724676         0.670712         1.360909
 H         2.236438        -2.651678        -3.401342
 H         1.850119        -1.600878        -4.918120
 H         3.573815        -1.870544        -4.505194
 H         2.797016         1.922699        -3.277975
 H         2.185832         1.068298        -4.784573
 H         0.168339         0.177885        -3.357875
 H         2.919099         1.519415        -1.297215
 H         4.193724        -0.074217        -1.872990
 H         3.066453        -1.475601        -1.265141
 H         0.961227        -0.024012         0.598789
