19
Iteration:  4029charge 0 multiplicity 1
 C         2.530029        -1.742324        -3.930020
 C         2.439268        -0.389377        -3.158739
 C         2.307491         0.912395        -3.764333
 C         1.169671         0.330812        -2.996896
 O         0.977886         0.841916        -1.701164
 C         2.219086         0.716421        -0.947172
 C         3.142270        -0.271598        -1.784486
 C         1.968698         0.588876         0.495073
 O         2.936416         0.358868         1.167344
 H         3.545927        -2.124825        -3.973285
 H         1.843704        -2.438251        -3.342428
 H         2.052545        -1.673832        -4.978388
 H         2.770463         1.743589        -3.384108
 H         2.211480         1.190624        -4.853204
 H         0.222213         0.004591        -3.518925
 H         2.653169         1.722371        -1.146255
 H         4.129975         0.194621        -1.984730
 H         3.334742        -1.367676        -1.458187
 H         0.917317         0.529595         0.880451
