19
Iteration:  2755charge 0 multiplicity 1
 C         2.416942        -1.657350        -3.988591
 C         2.440440        -0.447297        -3.074298
 C         2.231424         0.877465        -3.847557
 C         1.161568         0.304722        -2.889777
 O         1.035394         0.881276        -1.573261
 C         2.373854         0.779460        -1.077746
 C         3.288927        -0.230807        -1.797825
 C         2.237682         0.117634         0.273394
 O         2.555474         0.718163         1.338385
 H         3.380425        -2.103146        -4.085364
 H         1.672644        -2.511863        -3.620304
 H         1.916327        -1.483967        -5.033794
 H         2.923379         1.747089        -3.571638
 H         2.046215         0.924541        -4.948621
 H         0.278915        -0.140090        -3.313348
 H         2.800015         1.757789        -0.957617
 H         4.142569         0.196496        -2.260751
 H         3.514554        -1.191028        -1.306320
 H         1.680001        -0.960131         0.356879
