19
Iteration:  4729
 C         2.395130        -1.762918        -3.798096
 C         2.404951        -0.333435        -3.129683
 C         2.287589         0.916959        -3.886030
 C         1.124382         0.334071        -2.993110
 O         1.105666         0.946964        -1.690763
 C         2.382100         0.846489        -1.078288
 C         3.190886        -0.262854        -1.842597
 C         2.232492         0.173929         0.340783
 O         2.615709         0.521828         1.365803
 H         3.386921        -2.194879        -3.928678
 H         1.829770        -2.338386        -3.000915
 H         1.947841        -1.857728        -4.769360
 H         2.738821         1.813699        -3.415489
 H         2.281298         0.825303        -5.049160
 H         0.183159        -0.012597        -3.539249
 H         2.866422         1.885857        -1.004621
 H         4.320473        -0.193045        -1.875307
 H         2.899951        -1.113512        -1.217703
 H         1.417313        -0.512044         0.306289
