19
Iteration:  1549charge 0 multiplicity 1
 C         2.563496        -1.821632        -3.742517
 C         2.340350        -0.396390        -3.298995
 C         2.028507         0.794714        -4.049655
 C         1.157268         0.426464        -2.870024
 O         1.153472         1.035833        -1.549717
 C         2.513163         0.824239        -0.982164
 C         3.336883        -0.052670        -2.047480
 C         2.238983         0.028388         0.361406
 O         2.385836         0.499678         1.417161
 H         3.653643        -1.968173        -3.906666
 H         2.321279        -2.691031        -3.035190
 H         1.966124        -2.090615        -4.571784
 H         2.893771         1.636717        -3.862323
 H         1.500609         0.957555        -4.946284
 H         0.024292         0.300595        -3.080377
 H         2.743084         1.798009        -0.684191
 H         4.114042         0.672700        -2.441869
 H         3.525786        -0.993209        -1.445786
 H         2.099443        -1.078592         0.314712
