19
Iteration:  2795charge 0 multiplicity 1
 C         2.539814        -1.709347        -3.928354
 C         2.381025        -0.345686        -3.331979
 C         2.204832         1.057893        -3.967810
 C         1.168393         0.300092        -3.008429
 O         1.076750         0.768412        -1.549733
 C         2.436800         0.639668        -0.992508
 C         3.156163        -0.426857        -1.997554
 C         2.146531         0.255523         0.492731
 O         2.632901         0.788698         1.541569
 H         3.645555        -1.783366        -4.041364
 H         2.005285        -2.452859        -3.391496
 H         1.954185        -1.808615        -4.840293
 H         2.791658         1.879705        -3.739669
 H         1.728440         1.112855        -4.978553
 H         0.185258        -0.047994        -3.383186
 H         3.036312         1.586903        -1.111983
 H         4.274409        -0.133605        -1.888839
 H         3.047645        -1.429130        -1.491458
 H         1.198321        -0.343506         0.477488
