19
Iteration:  2285charge 0 multiplicity 1
 C         2.588767        -1.805544        -3.616664
 C         2.436900        -0.398655        -3.123680
 C         2.098177         0.864476        -3.998490
 C         1.148155         0.347702        -2.963478
 O         1.124527         1.001853        -1.737618
 C         2.277108         0.873917        -1.045909
 C         3.232735        -0.005443        -1.888792
 C         2.006303         0.284029         0.359876
 O         2.772433         0.218981         1.329506
 H         3.628223        -2.024021        -3.952334
 H         2.370012        -2.490852        -2.862755
 H         1.846796        -2.118805        -4.409304
 H         2.610858         1.720668        -3.586248
 H         1.925709         0.813609        -5.142716
 H         0.150674         0.053860        -3.379983
 H         2.658922         1.898622        -0.820171
 H         4.179429         0.406764        -2.247175
 H         3.542698        -0.970377        -1.537151
 H         0.904876        -0.008934         0.454145
