19
Iteration:  2889
 C         2.637117        -1.601974        -4.009331
 C         2.503846        -0.328401        -3.233838
 C         2.366129         1.000115        -3.824053
 C         1.137344         0.384789        -3.005059
 O         0.901238         0.637627        -1.601971
 C         2.211784         0.643627        -0.977606
 C         2.945690        -0.467221        -1.833969
 C         2.028940         0.416605         0.493785
 O         2.986970         0.697355         1.255766
 H         3.683096        -1.704400        -4.221150
 H         2.312616        -2.421539        -3.358407
 H         1.959894        -1.747148        -4.824649
 H         3.013535         1.764056        -3.447996
 H         2.165075         1.011516        -4.970791
 H         0.083558         0.106502        -3.361483
 H         2.565549         1.662905        -0.895099
 H         3.983286        -0.379578        -1.581203
 H         2.605080        -1.423507        -1.537410
 H         1.076561        -0.054362         1.077548
