19
Iteration:  4910
 C         2.374882        -1.669671        -3.838487
 C         2.406235        -0.386947        -3.156883
 C         2.315879         0.912915        -3.998142
 C         1.189641         0.355081        -2.969551
 O         1.082494         0.876932        -1.667655
 C         2.331126         0.758210        -1.004308
 C         3.162511        -0.240042        -1.770063
 C         2.067390         0.239528         0.368629
 O         2.762720         0.558536         1.374801
 H         3.370562        -2.225167        -4.017150
 H         1.652718        -2.413057        -3.429018
 H         1.996010        -1.600629        -4.933962
 H         3.008097         1.721226        -3.873501
 H         2.202839         0.638699        -5.055821
 H         0.244839        -0.066327        -3.512266
 H         2.863341         1.726948        -0.992394
 H         4.175108         0.068329        -1.770666
 H         3.191975        -1.130557        -1.070241
 H         1.224874        -0.565047         0.434130
