19
Iteration:  2850charge 0 multiplicity 1
 C         2.599411        -1.551785        -4.176126
 C         2.449522        -0.507658        -3.102276
 C         2.306648         0.861507        -3.621373
 C         1.035863         0.292688        -2.986540
 O         0.975922         0.860798        -1.669663
 C         2.238782         0.758423        -1.075422
 C         3.071314        -0.477275        -1.745851
 C         2.113090         0.312821         0.404741
 O         2.852555         0.765348         1.327550
 H         3.522095        -1.498146        -4.844169
 H         2.586860        -2.576710        -3.789759
 H         1.763717        -1.348530        -4.889572
 H         2.805211         1.691132        -3.141460
 H         2.450282         0.942087        -4.671982
 H         0.227673        -0.260354        -3.392683
 H         2.882057         1.668184        -1.219425
 H         4.185560        -0.186888        -1.692476
 H         2.870818        -1.421034        -1.148277
 H         1.295388        -0.541333         0.564863
