19
Iteration:  4975charge 0 multiplicity 1
 C         2.568867        -1.651559        -3.992097
 C         2.406321        -0.406099        -3.124968
 C         2.313333         0.850679        -3.856417
 C         1.112239         0.384660        -2.983502
 O         1.043712         1.011755        -1.662909
 C         2.244676         0.627970        -1.038229
 C         3.083817        -0.478037        -1.723813
 C         1.985004         0.453045         0.464655
 O         2.881280         0.534802         1.242074
 H         3.625098        -1.576870        -4.441940
 H         2.535063        -2.500140        -3.291466
 H         1.719141        -1.841507        -4.736720
 H         3.095402         1.560265        -3.579536
 H         2.210065         0.757344        -4.913049
 H         0.020223         0.270754        -3.337387
 H         2.878827         1.641347        -0.975122
 H         4.107975        -0.218904        -1.683848
 H         3.066078        -1.567582        -1.363241
 H         0.995821         0.111512         0.769291
