19
Iteration:  1476charge 0 multiplicity 1
 C         2.455812        -1.721751        -3.907208
 C         2.528609        -0.358185        -3.179538
 C         1.973251         0.727470        -4.057939
 C         1.144431         0.300156        -2.891658
 O         1.211317         0.963522        -1.706180
 C         2.495567         0.874954        -0.968694
 C         3.423427        -0.047441        -1.926665
 C         2.017722         0.273969         0.459374
 O         2.530932         0.366135         1.514760
 H         3.384986        -1.999572        -4.553151
 H         2.335062        -2.547381        -3.257905
 H         1.549172        -1.745792        -4.479575
 H         2.516885         1.765638        -3.998759
 H         1.423663         0.490009        -4.963737
 H         0.155060        -0.201412        -3.201552
 H         2.895509         1.936217        -0.861088
 H         4.347459         0.509160        -2.157026
 H         3.512397        -0.962794        -1.450568
 H         1.166764        -0.364539         0.325938
