19
Iteration:  4294charge 0 multiplicity 1
 C         2.506515        -1.685963        -4.014803
 C         2.323920        -0.509310        -3.068892
 C         2.164334         0.862040        -3.946737
 C         1.161201         0.380018        -2.889223
 O         1.197054         1.099365        -1.671407
 C         2.422676         0.668911        -0.999240
 C         3.219722        -0.399351        -1.860566
 C         2.054391         0.211535         0.453981
 O         2.630960         0.640725         1.388366
 H         3.494872        -1.715253        -4.598045
 H         2.489176        -2.630478        -3.452772
 H         1.736020        -1.690556        -4.779918
 H         2.701988         1.772893        -3.743130
 H         1.977931         0.626615        -5.108320
 H         0.062312         0.157013        -3.219131
 H         2.911551         1.700664        -0.763519
 H         4.037750         0.233129        -2.299347
 H         3.503118        -1.279111        -1.350063
 H         1.227973        -0.598590         0.421317
