19
Iteration:  3572
 C         2.627937        -1.616716        -3.851897
 C         2.497979        -0.342675        -3.136496
 C         2.244797         0.937582        -3.934197
 C         1.207728         0.265029        -3.016040
 O         0.896437         0.795411        -1.643698
 C         2.188779         0.822634        -1.023014
 C         2.987788        -0.278080        -1.705050
 C         2.052551         0.428699         0.428417
 O         2.978958         0.395562         1.232510
 H         3.610785        -1.751006        -4.373268
 H         2.537949        -2.411300        -3.129095
 H         1.935872        -1.931800        -4.684645
 H         2.717397         1.902557        -3.681610
 H         2.183472         0.718816        -5.025301
 H         0.287688        -0.016820        -3.526630
 H         2.777229         1.750239        -1.241599
 H         3.998945         0.172891        -1.719696
 H         2.840746        -1.309699        -1.306821
 H         1.039104        -0.036535         0.790749
