19
Iteration:  1564
 C         2.474019        -1.805920        -3.778586
 C         2.425274        -0.382625        -3.185447
 C         2.013651         0.866279        -4.079592
 C         1.151717         0.381541        -2.905462
 O         1.196563         0.955842        -1.612500
 C         2.490756         0.810532        -1.007483
 C         3.350771         0.013789        -2.052209
 C         2.268808         0.064145         0.390814
 O         2.363872         0.495619         1.540984
 H         3.511947        -2.063849        -4.120623
 H         2.151129        -2.493875        -3.064090
 H         1.785289        -1.904660        -4.640309
 H         2.641037         1.736911        -4.041750
 H         1.511888         0.465622        -5.058911
 H         0.154298        -0.036480        -3.085119
 H         3.015108         1.803636        -0.839061
 H         4.345364         0.492977        -2.347908
 H         3.677591        -0.932741        -1.632152
 H         1.756579        -0.912793         0.064659
