19
Iteration:  1101charge 0 multiplicity 1
 C         2.681437        -1.666334        -4.004504
 C         2.389457        -0.415260        -3.073211
 C         2.112869         0.839061        -3.895735
 C         1.069604         0.253874        -2.948406
 O         1.111825         1.048379        -1.745166
 C         2.347986         0.709511        -0.959224
 C         3.144849        -0.325129        -1.737267
 C         1.952027         0.489666         0.462859
 O         2.881611         0.384372         1.275937
 H         3.758878        -1.719467        -4.416282
 H         2.359939        -2.634981        -3.532181
 H         2.151340        -1.642089        -4.943863
 H         2.460848         1.817465        -3.695755
 H         1.902002         0.813471        -4.990752
 H        -0.076578         0.037551        -3.224847
 H         2.863898         1.645148        -0.951933
 H         4.231214        -0.190804        -1.841209
 H         2.851976        -1.375876        -1.179228
 H         0.854735         0.444313         0.812910
