19
Iteration:  1649
 C         2.705177        -1.730049        -3.817909
 C         2.320067        -0.427096        -3.176090
 C         2.008087         0.776605        -4.053300
 C         1.099501         0.387199        -2.964422
 O         1.137550         1.094403        -1.645460
 C         2.501014         0.847966        -1.030301
 C         3.138625        -0.181378        -1.978243
 C         2.203727         0.168437         0.425558
 O         2.539210         0.425991         1.564441
 H         3.699988        -1.680240        -4.385576
 H         2.853227        -2.491288        -3.040150
 H         2.086503        -2.115218        -4.551635
 H         2.519419         1.654134        -4.119245
 H         1.607227         0.541264        -5.085538
 H         0.073522         0.318330        -3.118266
 H         3.059131         1.723662        -1.059631
 H         4.111787         0.281571        -2.303024
 H         3.486681        -1.103408        -1.493668
 H         1.575172        -0.804480         0.265166
