19
Iteration:  2014
 C         2.473450        -1.785354        -3.856378
 C         2.471793        -0.393415        -3.116669
 C         2.069549         0.799622        -3.907753
 C         1.143495         0.292281        -2.904957
 O         1.144961         1.028213        -1.751865
 C         2.359974         0.787174        -1.019386
 C         3.384422        -0.029169        -1.961964
 C         2.070345         0.094117         0.366192
 O         2.618943         0.527414         1.459641
 H         3.412036        -2.317573        -4.245389
 H         2.083897        -2.637090        -3.325955
 H         1.674581        -1.532051        -4.656607
 H         2.418554         1.757726        -3.388284
 H         2.053421         0.717282        -4.943702
 H         0.178170        -0.130254        -3.177129
 H         2.670857         1.774116        -0.518654
 H         4.101689         0.666568        -2.372231
 H         3.851903        -0.949587        -1.501836
 H         1.282060        -0.673359         0.281505
