19
Iteration:  4942
 C         2.485169        -1.807796        -3.923865
 C         2.396136        -0.444855        -3.224331
 C         2.250662         1.041813        -3.900288
 C         1.154183         0.366916        -2.995597
 O         1.074143         0.893472        -1.665046
 C         2.334629         0.806412        -1.095384
 C         3.112847        -0.383874        -1.728403
 C         2.089212         0.450588         0.442661
 O         2.779128         0.472749         1.402092
 H         3.594379        -2.047740        -4.216205
 H         2.207175        -2.579530        -3.184664
 H         1.884975        -1.907605        -4.923529
 H         2.990139         1.704909        -3.517344
 H         2.133133         1.060796        -4.970271
 H         0.128670         0.082303        -3.504022
 H         2.924768         1.816581        -1.079552
 H         4.137631        -0.068299        -1.735468
 H         2.913971        -1.405043        -1.244345
 H         1.183450        -0.119293         0.351992
