19
Iteration:  1225charge 0 multiplicity 1
 C         2.598160        -1.649933        -3.997369
 C         2.450157        -0.385258        -3.171879
 C         2.311889         0.975910        -3.793489
 C         1.153771         0.436772        -3.002347
 O         0.916680         0.748829        -1.614921
 C         2.264274         0.717698        -1.065086
 C         2.964749        -0.502250        -1.807278
 C         2.189538         0.354255         0.439564
 O         2.879286         0.708503         1.332410
 H         3.638635        -1.817792        -4.427148
 H         2.482694        -2.584664        -3.466835
 H         1.790384        -1.730428        -4.693307
 H         2.936933         1.799114        -3.564873
 H         2.219184         0.962809        -4.937869
 H         0.264737         0.052087        -3.359890
 H         2.624299         1.699958        -1.262071
 H         4.061769        -0.464714        -1.527245
 H         2.342382        -1.434485        -1.398764
 H         1.339714        -0.413840         0.599447
