19
Iteration:  2818
 C         2.604705        -1.650208        -4.083691
 C         2.456596        -0.335188        -3.218266
 C         2.135311         0.950002        -3.883664
 C         1.118969         0.431387        -3.012110
 O         1.126149         0.759582        -1.608178
 C         2.355738         0.630294        -1.014605
 C         3.115009        -0.469621        -1.771220
 C         2.080445         0.265538         0.513260
 O         2.722764         0.798446         1.411367
 H         3.608001        -1.737034        -4.499589
 H         2.227562        -2.496060        -3.524507
 H         1.777368        -1.687917        -4.805166
 H         2.767438         1.802624        -3.807336
 H         1.876872         0.754820        -4.911097
 H         0.177252         0.016863        -3.293788
 H         2.894633         1.593982        -1.176059
 H         4.243023        -0.334361        -1.782788
 H         2.908663        -1.505853        -1.347742
 H         1.163127        -0.447985         0.612021
