19
Iteration:  1251
 C         2.696186        -1.645185        -4.178448
 C         2.296195        -0.499729        -3.209397
 C         2.221130         0.963550        -3.844831
 C         1.134824         0.375979        -3.019166
 O         1.055919         0.816509        -1.607001
 C         2.344836         0.661080        -0.994544
 C         2.978809        -0.539161        -1.737631
 C         2.059559         0.490662         0.506711
 O         2.876445         0.680538         1.401451
 H         3.592073        -1.512854        -4.669579
 H         2.909922        -2.593628        -3.622884
 H         1.836208        -1.967275        -4.896091
 H         2.865810         1.786491        -3.441459
 H         2.078126         1.007118        -4.888623
 H         0.005379         0.195587        -3.378564
 H         2.866344         1.692151        -1.129269
 H         4.051626        -0.448749        -1.719444
 H         2.686735        -1.440085        -1.301154
 H         1.038520         0.387113         0.733253
