19
Iteration:  2122
 C         2.472012        -1.699060        -3.700120
 C         2.469045        -0.355815        -3.072352
 C         2.037418         0.745189        -4.036532
 C         1.141682         0.283761        -2.899330
 O         1.199193         1.068801        -1.656327
 C         2.399445         0.756252        -0.996484
 C         3.385025        -0.002702        -1.941675
 C         2.086920         0.093923         0.297245
 O         2.534548         0.438814         1.327074
 H         3.521900        -1.832171        -4.198442
 H         2.076680        -2.491777        -3.099906
 H         1.587249        -1.606517        -4.437474
 H         2.707570         1.657080        -3.955162
 H         1.816665         0.331030        -4.957175
 H         0.168868        -0.205999        -3.098100
 H         2.701970         1.776290        -0.570879
 H         4.181345         0.621563        -2.393592
 H         3.959133        -0.852778        -1.488626
 H         1.263893        -0.629596         0.323194
