19
Iteration:  3431
 C         2.822556        -1.837097        -3.676353
 C         2.322769        -0.399486        -3.107036
 C         2.095864         0.791818        -4.052337
 C         1.071939         0.351684        -2.917164
 O         1.040748         0.995509        -1.653607
 C         2.275533         0.955601        -1.001319
 C         3.231227         0.066019        -1.918785
 C         1.990056         0.429649         0.434018
 O         2.808398         0.005655         1.183899
 H         3.938168        -1.823752        -4.050950
 H         2.749029        -2.481556        -2.746023
 H         1.958849        -2.172296        -4.332853
 H         2.807553         1.666471        -3.928250
 H         1.657759         0.681649        -4.972722
 H         0.028513         0.116629        -3.204363
 H         2.741890         1.976758        -0.881487
 H         4.117553         0.656651        -2.258510
 H         3.462970        -0.798704        -1.300153
 H         0.855130         0.589705         0.714606
