19
Iteration:   418
 C         2.572592        -1.751928        -3.724046
 C         2.454439        -0.416804        -3.122705
 C         2.361152         0.936040        -3.869999
 C         1.214967         0.436194        -3.043006
 O         0.930783         0.889443        -1.780441
 C         2.164921         0.785793        -1.008462
 C         3.077899        -0.317552        -1.754143
 C         1.949587         0.503064         0.448417
 O         2.945143         0.295130         1.196935
 H         2.275116        -2.647366        -3.052448
 H         2.100482        -1.653038        -4.691872
 H         3.592276        -1.974663        -4.014240
 H         2.893895         1.829545        -3.479053
 H         2.185451         1.085839        -4.926321
 H         0.307594         0.203081        -3.604404
 H         2.710868         1.722566        -1.097093
 H         4.179700         0.001984        -1.835582
 H         2.958915        -1.361637        -1.229851
 H         0.859483         0.479116         0.810014
