19
Iteration:   310charge 0 multiplicity 1
 C         2.548620        -1.729837        -4.004057
 C         2.392228        -0.494484        -3.183045
 C         2.170768         0.970850        -3.872074
 C         1.144636         0.506361        -2.915357
 O         1.241508         0.952238        -1.506327
 C         2.546205         0.641878        -1.043145
 C         3.132411        -0.481910        -1.807011
 C         2.289691         0.197442         0.336309
 O         2.268136         0.787327         1.311967
 H         2.374080        -2.733403        -3.463341
 H         1.716410        -1.884234        -4.709619
 H         3.466931        -1.609767        -4.493639
 H         2.752768         1.791902        -3.537898
 H         1.898501         0.853441        -4.934574
 H         0.124470         0.336133        -3.161525
 H         3.214355         1.562807        -1.120886
 H         4.225503        -0.380660        -2.010796
 H         3.073395        -1.394197        -1.278610
 H         1.919453        -0.939482         0.351414
