19
Iteration:  4654charge 0 multiplicity 1
 C         2.460431        -1.765273        -3.964246
 C         2.445279        -0.410527        -3.179820
 C         2.257528         0.901946        -3.920632
 C         1.151890         0.397293        -3.001239
 O         1.023639         0.903712        -1.703829
 C         2.440533         0.809410        -1.033538
 C         3.155183        -0.328573        -1.794585
 C         2.091581         0.393631         0.450329
 O         2.721153         0.476809         1.437256
 H         3.534133        -1.752678        -4.354174
 H         2.349985        -2.605970        -3.159343
 H         1.723237        -1.930206        -4.768938
 H         2.712840         1.837609        -3.557441
 H         1.953529         0.817757        -5.031586
 H         0.189500         0.045632        -3.502113
 H         2.993877         1.761401        -1.123496
 H         4.318058        -0.422713        -1.733591
 H         2.857012        -1.212850        -1.154448
 H         1.048086         0.145016         0.639882
