19
Iteration:  1890
 C         2.513837        -1.575402        -3.971790
 C         2.492329        -0.398012        -3.134819
 C         2.312379         0.928505        -3.834998
 C         1.145906         0.318779        -2.965342
 O         0.986456         0.624099        -1.636876
 C         2.293438         0.777432        -1.084777
 C         3.106486        -0.322003        -1.710685
 C         2.045998         0.472092         0.421287
 O         2.842632         0.548366         1.275195
 H         3.535908        -1.838770        -4.346411
 H         2.006960        -2.374696        -3.414970
 H         1.921470        -1.549253        -4.863057
 H         2.944224         1.842330        -3.571157
 H         2.183743         0.792409        -4.869632
 H         0.110898         0.115064        -3.364583
 H         2.633950         1.848671        -1.269624
 H         4.212723        -0.182122        -1.727587
 H         2.922999        -1.256877        -1.152970
 H         0.966225         0.164071         0.406815
