19
Iteration:  1583charge 0 multiplicity 1
 C         2.364800        -1.654739        -3.785226
 C         2.511790        -0.329224        -3.186534
 C         1.977465         0.788003        -4.043742
 C         1.159026         0.209083        -2.858880
 O         1.225125         0.953875        -1.656312
 C         2.522359         0.815831        -0.984259
 C         3.417006        -0.059343        -1.927636
 C         2.161188         0.122777         0.313837
 O         2.397700         0.496829         1.454039
 H         3.268816        -2.010663        -4.360698
 H         2.093694        -2.314096        -2.956876
 H         1.640366        -1.617699        -4.528039
 H         2.237900         1.912910        -3.834933
 H         1.863313         0.724882        -5.120369
 H         0.267918        -0.357151        -3.223154
 H         2.929608         1.772607        -0.801348
 H         4.354956         0.485919        -2.240129
 H         3.976331        -0.940775        -1.530192
 H         1.658182        -0.829586         0.171936
