19
Iteration:  3269
 C         2.677960        -1.665572        -3.646827
 C         2.576823        -0.331968        -2.983970
 C         2.024141         0.636421        -4.007640
 C         1.059983         0.240585        -2.858687
 O         1.032209         1.060129        -1.716099
 C         2.283517         1.039567        -0.994423
 C         3.326870         0.061748        -1.753588
 C         1.953401         0.553739         0.390089
 O         2.777031        -0.180052         0.953029
 H         3.486302        -1.691516        -4.441063
 H         2.849793        -2.590112        -3.017559
 H         1.712270        -1.719800        -4.193371
 H         2.306425         1.624175        -4.232421
 H         1.774223         0.078741        -4.968189
 H         0.249598        -0.523854        -2.836763
 H         2.576361         2.160437        -0.912008
 H         4.256741         0.708342        -2.085410
 H         3.557396        -0.805633        -1.032263
 H         1.076513         0.991644         0.840053
