19
Iteration:  2701
 C         2.572113        -1.787040        -3.805787
 C         2.394858        -0.317451        -3.270496
 C         2.092904         0.906457        -4.018084
 C         1.132691         0.370436        -2.959465
 O         1.176895         0.934067        -1.606926
 C         2.423468         0.715179        -0.988041
 C         3.244662        -0.224304        -1.994513
 C         2.046297         0.245310         0.419472
 O         2.616205         0.551613         1.508836
 H         3.458896        -1.845873        -4.360895
 H         2.592087        -2.596751        -3.005797
 H         1.752829        -2.183698        -4.473980
 H         2.756001         1.777680        -3.898620
 H         1.616429         0.880661        -5.073432
 H         0.123855         0.093707        -3.291913
 H         3.008892         1.614441        -0.847639
 H         4.264038         0.036481        -2.165831
 H         3.264914        -1.287199        -1.692532
 H         1.212659        -0.411305         0.454676
