19
Iteration:  1897charge 0 multiplicity 1
 C         2.515664        -1.605654        -4.013213
 C         2.489274        -0.378651        -3.100787
 C         2.310732         0.867405        -3.888955
 C         1.165634         0.329062        -2.952578
 O         0.971726         0.679903        -1.608854
 C         2.301661         0.829958        -1.056426
 C         3.124993        -0.305714        -1.726965
 C         1.988151         0.418419         0.402202
 O         2.857913         0.557132         1.284191
 H         3.506202        -1.823796        -4.276007
 H         2.151756        -2.577581        -3.539026
 H         1.932091        -1.363048        -4.901535
 H         2.961102         1.662428        -3.414521
 H         2.020576         0.797485        -4.937395
 H         0.204753         0.022846        -3.429683
 H         2.745335         1.745763        -1.304640
 H         4.193362        -0.097935        -1.737324
 H         2.899387        -1.215610        -1.168355
 H         0.985761        -0.059789         0.610206
