19
Iteration:   826charge 0 multiplicity 1
 C         2.446799        -1.696215        -3.934477
 C         2.456846        -0.337737        -3.165188
 C         2.553568         0.966071        -3.798999
 C         1.238747         0.457891        -3.069433
 O         0.885087         0.785390        -1.739667
 C         2.196546         0.732712        -1.020551
 C         2.968802        -0.405837        -1.770345
 C         2.151505         0.232451         0.462458
 O         2.832232         0.650520         1.346065
 H         2.089258        -2.523559        -3.211914
 H         1.709606        -1.962030        -4.748469
 H         3.480788        -1.863759        -4.253420
 H         3.209376         1.733017        -3.384103
 H         2.394950         0.953794        -4.916278
 H         0.274460         0.479985        -3.621333
 H         2.603183         1.784963        -1.101609
 H         4.042261        -0.294974        -1.596335
 H         2.654080        -1.321279        -1.300227
 H         1.534587        -0.603581         0.650811
