19
Iteration:  2636charge 0 multiplicity 1
 C         2.500592        -1.750184        -3.855801
 C         2.515314        -0.390699        -3.054742
 C         2.168025         0.799816        -3.975236
 C         1.088930         0.261124        -2.932677
 O         1.089211         1.042723        -1.757317
 C         2.294593         0.925656        -0.984001
 C         3.178341        -0.095441        -1.707097
 C         2.091778         0.287289         0.320412
 O         2.789206         0.314403         1.295450
 H         3.471344        -1.812823        -4.164660
 H         2.237539        -2.590469        -3.281061
 H         1.753194        -1.635006        -4.600113
 H         2.584247         1.774652        -3.809574
 H         2.118182         0.553390        -5.139354
 H         0.167220        -0.322797        -3.169114
 H         2.761478         1.890034        -0.870458
 H         4.187162         0.145561        -1.785934
 H         3.075369        -0.945125        -1.025060
 H         1.167830        -0.475555         0.166353
