19
Iteration:  2006
 C         2.442935        -1.740362        -3.853665
 C         2.496499        -0.451410        -3.113753
 C         2.114336         0.799052        -3.883520
 C         1.084919         0.256135        -2.936688
 O         1.139830         0.996364        -1.742938
 C         2.386015         0.798610        -1.025214
 C         3.332946        -0.002641        -1.939194
 C         2.138744         0.210081         0.383955
 O         2.581894         0.458322         1.434470
 H         3.416884        -1.984587        -4.216035
 H         1.940449        -2.550510        -3.233282
 H         1.820811        -1.712388        -4.723033
 H         2.466962         1.796763        -3.425408
 H         2.064189         0.927591        -4.929261
 H         0.121730        -0.269505        -3.196436
 H         2.916165         1.725138        -0.912043
 H         4.167750         0.565479        -2.315273
 H         3.776923        -0.829988        -1.362424
 H         1.426420        -0.631689         0.331498
