19
Iteration:  1667charge 0 multiplicity 1
 C         2.655391        -1.820897        -3.842027
 C         2.383446        -0.324233        -3.240996
 C         2.000051         0.803283        -4.113633
 C         1.080540         0.406694        -2.917114
 O         1.152015         1.062073        -1.669503
 C         2.358279         0.827980        -0.950643
 C         3.249249        -0.135485        -1.860454
 C         2.176335         0.129376         0.411321
 O         2.617508         0.462316         1.467730
 H         3.687022        -1.915974        -4.211555
 H         2.584745        -2.714903        -3.070846
 H         2.022906        -2.056957        -4.775540
 H         2.658041         1.756136        -3.963124
 H         1.659682         0.637566        -5.099659
 H         0.085749        -0.147667        -3.059862
 H         2.822188         1.865785        -0.739446
 H         4.296261         0.126479        -1.911983
 H         3.095545        -1.090294        -1.294968
 H         1.556813        -0.735884         0.185057
