19
Iteration:  4065charge 0 multiplicity 1
 C         2.564628        -1.620879        -3.940998
 C         2.483541        -0.331008        -3.145316
 C         2.301634         0.954530        -3.863992
 C         1.177555         0.372420        -3.017067
 O         0.941595         0.697980        -1.651222
 C         2.265341         0.768870        -1.098348
 C         2.982121        -0.390708        -1.728617
 C         2.124224         0.649008         0.469309
 O         2.894335         0.384907         1.306280
 H         3.554764        -1.975826        -4.436763
 H         2.373808        -2.419016        -3.197048
 H         1.747812        -1.724098        -4.642256
 H         2.842310         1.901709        -3.490572
 H         1.880273         0.818415        -4.829456
 H         0.349295        -0.063531        -3.468149
 H         2.970445         1.597916        -1.397923
 H         4.130498        -0.490895        -1.605994
 H         2.573020        -1.351927        -1.394030
 H         1.043262         0.296739         0.546467
