19
Iteration:  2742
 C         2.384505        -1.632176        -3.940909
 C         2.432275        -0.420579        -3.130739
 C         2.229875         0.810282        -3.856660
 C         1.170501         0.276545        -2.868910
 O         1.067335         0.906736        -1.646901
 C         2.390262         0.786200        -1.006477
 C         3.232055        -0.164524        -1.893261
 C         2.233730         0.125282         0.305822
 O         2.556918         0.666590         1.334104
 H         3.396384        -2.020421        -4.195251
 H         1.881414        -2.457885        -3.289352
 H         2.012081        -1.315543        -4.982430
 H         2.760836         1.613294        -3.435677
 H         2.204354         0.668162        -4.993256
 H         0.173331        -0.158192        -3.099173
 H         2.808661         1.796754        -0.912271
 H         4.292998         0.195401        -1.748326
 H         3.261180        -1.065676        -1.212581
 H         1.958972        -1.049017         0.230037
