19
Iteration:  2182charge 0 multiplicity 1
 C         2.560052        -1.724533        -3.619045
 C         2.369404        -0.385588        -3.113248
 C         2.089153         0.724368        -4.038595
 C         1.069699         0.394128        -2.919899
 O         1.214755         1.064339        -1.628999
 C         2.404306         0.867526        -0.993002
 C         3.282416        -0.043520        -1.914579
 C         2.098233         0.154919         0.232213
 O         2.578513         0.337292         1.323848
 H         3.463263        -1.760049        -4.153159
 H         2.614410        -2.558235        -2.838821
 H         1.969464        -2.007568        -4.443359
 H         2.560454         1.757544        -3.914119
 H         1.849446         0.566692        -5.114263
 H         0.179279        -0.159631        -3.098113
 H         2.760931         1.883675        -0.801256
 H         4.268616         0.402105        -2.219749
 H         3.481258        -1.004201        -1.450267
 H         1.302751        -0.646014        -0.024179
