19
Iteration:  1129
 C         2.606482        -1.680671        -3.890683
 C         2.457073        -0.333661        -3.196147
 C         2.118102         0.968735        -3.930891
 C         1.121710         0.279685        -2.948717
 O         1.074333         0.845344        -1.637155
 C         2.355515         0.704797        -1.044527
 C         3.091166        -0.373715        -1.802695
 C         2.078541         0.526087         0.426401
 O         2.804735         0.450411         1.367292
 H         3.576129        -2.188798        -3.741336
 H         1.825605        -2.395677        -3.606262
 H         2.415396        -1.631106        -5.017892
 H         2.605884         1.926536        -3.674474
 H         1.957351         1.086155        -5.019125
 H         0.202255        -0.158920        -3.257394
 H         3.006084         1.633158        -1.265856
 H         4.164055        -0.149497        -1.848403
 H         2.886893        -1.307233        -1.484625
 H         0.980613         0.101544         0.549430
