19
Iteration:   956charge 0 multiplicity 1
 C         2.643661        -1.681391        -3.822075
 C         2.409886        -0.408784        -3.108930
 C         2.176781         0.914418        -3.879750
 C         1.095461         0.318388        -2.944436
 O         1.086075         1.026844        -1.757859
 C         2.312527         0.761279        -1.037991
 C         3.111641        -0.311133        -1.766477
 C         1.960760         0.421106         0.405151
 O         2.839708         0.321004         1.234852
 H         1.819856        -1.885354        -4.426703
 H         3.642127        -1.675419        -4.259491
 H         2.517812        -2.624236        -3.246123
 H         2.822606         1.769846        -3.500024
 H         2.211797         0.842675        -4.952913
 H         0.150533         0.021265        -3.287439
 H         2.888570         1.679309        -0.982150
 H         4.225243        -0.081294        -1.882006
 H         3.060514        -1.361941        -1.259818
 H         0.944289         0.326435         0.675510
