19
Iteration:   525
 C         2.586802        -1.687810        -3.989129
 C         2.466357        -0.401892        -3.164034
 C         2.331173         0.916797        -3.910027
 C         1.131154         0.339122        -3.018900
 O         0.995191         0.705754        -1.661687
 C         2.391644         0.747705        -1.024728
 C         3.129117        -0.282501        -1.807521
 C         2.110526         0.795695         0.485295
 O         2.627635         0.259286         1.415459
 H         2.081933        -2.476831        -3.420145
 H         1.933156        -1.492761        -4.795107
 H         3.705734        -2.167212        -4.220952
 H         2.711128         1.871228        -3.470375
 H         2.131381         0.837139        -4.950581
 H         0.211763        -0.027193        -3.535150
 H         2.900679         1.705896        -1.394810
 H         4.188384        -0.283560        -1.755217
 H         2.887596        -1.144571        -1.279679
 H         1.144435         1.341467         0.578823
