19
Iteration:  4308charge 0 multiplicity 1
 C         2.427175        -1.711281        -4.006668
 C         2.331891        -0.453262        -3.108005
 C         2.207475         0.759869        -3.868727
 C         1.115828         0.373019        -2.987507
 O         1.171143         1.049692        -1.728320
 C         2.416915         0.758043        -0.974036
 C         3.250122        -0.266064        -1.898981
 C         2.130208         0.196645         0.474790
 O         2.613448         0.608573         1.463514
 H         3.490421        -1.542283        -4.416043
 H         2.224182        -2.665708        -3.547153
 H         1.788413        -1.709778        -4.866676
 H         2.830057         1.697937        -3.682911
 H         1.949989         0.670918        -4.980587
 H         0.152749         0.117169        -3.239186
 H         3.098116         1.647379        -0.927262
 H         4.294218         0.008973        -2.087027
 H         3.271931        -1.223848        -1.322242
 H         1.411855        -0.663826         0.406892
