19
Iteration:  1619charge 0 multiplicity 1
 C         2.565490        -1.737251        -3.874311
 C         2.433355        -0.416161        -3.126493
 C         1.993505         0.816689        -3.928614
 C         1.122683         0.249869        -2.844860
 O         1.203052         1.094136        -1.592293
 C         2.483124         0.793099        -0.968476
 C         3.332691        -0.137509        -1.904038
 C         2.084030         0.111901         0.227194
 O         2.492456         0.528202         1.333233
 H         3.446459        -1.832097        -4.506444
 H         2.662485        -2.511691        -3.196370
 H         1.664366        -1.977638        -4.462540
 H         2.417775         1.731752        -3.619446
 H         1.677293         0.707200        -5.047596
 H         0.092527         0.033179        -2.942271
 H         3.076401         1.724033        -0.787899
 H         4.142537         0.532484        -2.255135
 H         3.677970        -1.020523        -1.394404
 H         1.456340        -0.761501         0.060011
