19
Iteration:  4736
 C         2.404017        -1.766220        -3.755070
 C         2.433465        -0.387863        -3.158784
 C         2.268334         0.974842        -3.910669
 C         1.146814         0.320858        -3.014133
 O         1.091570         0.946279        -1.671534
 C         2.411736         0.909173        -1.103813
 C         3.155264        -0.285837        -1.875793
 C         2.192426         0.208945         0.305427
 O         2.628965         0.507148         1.469339
 H         3.374582        -2.198197        -3.978244
 H         1.936463        -2.542633        -3.199805
 H         1.951516        -1.829321        -4.773239
 H         2.884847         1.828190        -3.643660
 H         2.340637         0.816838        -4.973067
 H         0.097321        -0.014762        -3.207081
 H         2.908310         1.867139        -1.075970
 H         4.182642        -0.192943        -2.005838
 H         2.876177        -1.237179        -1.364092
 H         1.398034        -0.685266         0.277316
