19
Iteration:  1847charge 0 multiplicity 1
 C         2.684138        -1.719449        -4.025240
 C         2.454301        -0.370518        -3.264832
 C         2.304981         1.040222        -3.776831
 C         1.166845         0.335476        -3.054538
 O         0.927231         0.684093        -1.655828
 C         2.079851         0.583290        -0.929824
 C         3.022600        -0.419179        -1.790251
 C         2.012276         0.696546         0.521451
 O         3.000957         0.516749         1.277564
 H         3.831855        -1.890173        -4.234551
 H         2.238327        -2.510550        -3.378786
 H         2.101828        -1.845106        -4.989274
 H         2.930866         1.715644        -3.120025
 H         2.061490         1.080018        -4.797671
 H         0.228542         0.073424        -3.644213
 H         2.725097         1.553776        -1.093100
 H         4.106880        -0.153897        -1.647168
 H         2.848825        -1.445502        -1.417643
 H         1.001321         1.188184         0.876480
