19
Iteration:   771charge 0 multiplicity 1
 C         2.619744        -1.608409        -4.110023
 C         2.414706        -0.461955        -3.093252
 C         2.274552         0.844555        -3.840649
 C         1.171414         0.431845        -2.992123
 O         1.117699         0.925220        -1.622254
 C         2.410879         0.606686        -1.018993
 C         2.989166        -0.565533        -1.744438
 C         2.026920         0.479955         0.415355
 O         2.692639         0.645720         1.362709
 H         2.868990        -2.592490        -3.555438
 H         1.702632        -1.616342        -4.833215
 H         3.344396        -1.377558        -4.913051
 H         2.679605         1.780818        -3.401545
 H         2.314410         1.012696        -4.972325
 H         0.119164         0.121951        -3.278087
 H         3.203349         1.452266        -1.003537
 H         4.065587        -0.451524        -1.721598
 H         2.602019        -1.442266        -1.342536
 H         0.872222        -0.000684         0.454215
