19
Iteration:  1145charge 0 multiplicity 1
 C         2.511428        -1.703348        -3.936766
 C         2.428131        -0.359959        -3.191612
 C         2.200772         0.959250        -3.915725
 C         1.164295         0.382207        -3.040909
 O         0.998374         0.682323        -1.618846
 C         2.403183         0.849061        -1.036209
 C         3.120395        -0.320956        -1.850487
 C         2.076356         0.387003         0.432993
 O         2.839405         0.520598         1.418653
 H         3.516111        -2.119906        -3.699514
 H         1.658281        -2.304454        -3.591134
 H         2.669963        -1.678545        -4.978576
 H         2.798821         1.850123        -3.622576
 H         1.912197         0.778635        -4.928853
 H         0.094256         0.131096        -3.414698
 H         2.635954         1.886316        -1.059091
 H         4.220142        -0.283421        -1.743034
 H         2.808591        -1.260979        -1.163516
 H         1.056070         0.175436         0.533916
