19
Iteration:  2565
 C         2.546806        -1.827527        -3.730052
 C         2.454195        -0.353926        -3.143828
 C         2.272256         0.896315        -3.980021
 C         1.182475         0.403464        -2.980777
 O         0.906648         0.884921        -1.714010
 C         2.202787         0.833496        -1.071628
 C         3.210073        -0.088417        -1.782581
 C         2.036365         0.380757         0.396701
 O         2.917672         0.256345         1.299452
 H         3.566657        -2.199038        -3.795047
 H         1.921328        -2.509616        -3.050691
 H         1.816518        -1.879413        -4.561223
 H         2.821730         1.762599        -3.611936
 H         2.015644         0.778447        -5.011328
 H         0.320667         0.067643        -3.526635
 H         2.616802         1.876191        -1.056912
 H         4.220995         0.432230        -1.933688
 H         3.389121        -1.090336        -1.343170
 H         0.889830         0.307700         0.688565
