19
Iteration:  1148charge 0 multiplicity 1
 C         2.493038        -1.701964        -3.945857
 C         2.440050        -0.375453        -3.164636
 C         2.207919         0.947826        -3.896583
 C         1.159916         0.405143        -3.065034
 O         1.000391         0.667507        -1.615346
 C         2.370869         0.852025        -1.031096
 C         3.113287        -0.313752        -1.860734
 C         2.108784         0.378352         0.462554
 O         2.831646         0.531833         1.398233
 H         3.571625        -2.195897        -3.675510
 H         1.649528        -2.341747        -3.667123
 H         2.626046        -1.718302        -5.036656
 H         2.913765         1.863282        -3.698291
 H         1.958852         0.855778        -4.942276
 H         0.237539         0.177458        -3.364565
 H         2.557876         1.940928        -1.069208
 H         4.235480        -0.201025        -1.788178
 H         2.823628        -1.234404        -1.180562
 H         1.014657         0.097947         0.579076
