19
Iteration:  4949charge 0 multiplicity 1
 C         2.521136        -1.834174        -3.933962
 C         2.360650        -0.419357        -3.154742
 C         2.259510         1.036289        -3.850766
 C         1.166703         0.364557        -3.045895
 O         1.073283         0.913956        -1.682536
 C         2.400541         0.733581        -1.072883
 C         3.053465        -0.365713        -1.740494
 C         2.013630         0.443224         0.402983
 O         2.823125         0.493937         1.379556
 H         3.543235        -1.851138        -4.206892
 H         2.334583        -2.651672        -3.275007
 H         1.851296        -1.845703        -4.755804
 H         2.944814         1.785681        -3.499472
 H         2.066853         1.073850        -4.932058
 H         0.180120         0.060212        -3.337051
 H         2.932700         1.727120        -1.013558
 H         4.172327        -0.159643        -1.940926
 H         2.984379        -1.360594        -1.358970
 H         0.965739        -0.058913         0.580768
