19
Iteration:   808charge 0 multiplicity 1
 C         2.559628        -1.718675        -4.010892
 C         2.441783        -0.469873        -3.157508
 C         2.431604         0.979876        -3.822996
 C         1.210127         0.503305        -3.134880
 O         0.977551         0.937645        -1.701260
 C         2.188952         0.647181        -0.962850
 C         2.935791        -0.449336        -1.712279
 C         2.117121         0.261447         0.496094
 O         2.821288         0.685117         1.314221
 H         2.526942        -2.692733        -3.483156
 H         1.556641        -1.744778        -4.518217
 H         3.435670        -1.828815        -4.652496
 H         2.934878         1.719450        -3.219482
 H         2.439626         1.050581        -4.849783
 H         0.350915         0.155205        -3.628952
 H         2.758904         1.565188        -0.942395
 H         4.009896        -0.313781        -1.647859
 H         2.828615        -1.473672        -1.270532
 H         1.379431        -0.691503         0.730406
