19
Iteration:  3426charge 0 multiplicity 1
 C         2.803784        -1.828542        -3.659791
 C         2.401340        -0.385444        -3.148276
 C         2.127622         0.758066        -3.997897
 C         1.072136         0.363423        -2.907014
 O         1.019522         1.030297        -1.618973
 C         2.273525         0.972547        -1.018733
 C         3.169874         0.065171        -1.894486
 C         1.970452         0.429003         0.369502
 O         2.831946        -0.014633         1.173147
 H         3.779712        -1.870623        -4.039261
 H         2.890561        -2.597616        -2.892148
 H         2.014299        -2.191887        -4.317881
 H         2.741214         1.633459        -4.006446
 H         1.599096         0.524155        -5.020650
 H         0.066249         0.041055        -3.153672
 H         2.609330         2.037363        -1.014665
 H         4.040723         0.693641        -2.053402
 H         3.492786        -0.879380        -1.412729
 H         0.941864         0.600128         0.782233
