19
Iteration:  4049
 C         2.502902        -1.670001        -3.847869
 C         2.546716        -0.374964        -3.176592
 C         2.223523         1.081733        -3.848039
 C         1.177345         0.339872        -3.003663
 O         0.982492         0.723204        -1.694661
 C         2.268671         0.735405        -1.067628
 C         3.070732        -0.415042        -1.708889
 C         2.037727         0.545075         0.404973
 O         2.915480         0.393506         1.250345
 H         3.493900        -1.883734        -4.124934
 H         2.102233        -2.547690        -3.259660
 H         1.753687        -1.692626        -4.706928
 H         2.735870         1.971397        -3.559197
 H         2.217476         1.085699        -4.959712
 H         0.226828         0.032997        -3.567513
 H         2.676409         1.751643        -1.203545
 H         4.119765        -0.224916        -1.512771
 H         2.961727        -1.351182        -1.095823
 H         1.043921         0.819418         0.730397
