19
Iteration:  1493
 C         2.463512        -1.762093        -3.843097
 C         2.544616        -0.386786        -3.184941
 C         1.973956         0.849479        -4.003140
 C         1.214122         0.234669        -2.842556
 O         1.197400         1.046437        -1.616876
 C         2.451974         0.873927        -1.050220
 C         3.309230        -0.042091        -1.907536
 C         2.146134         0.146270         0.319342
 O         2.475832         0.428674         1.414113
 H         3.304768        -2.014605        -4.445083
 H         2.242785        -2.586711        -3.080136
 H         1.625974        -1.748539        -4.608677
 H         2.391798         1.835706        -3.743987
 H         1.737072         0.432740        -4.975716
 H         0.281341        -0.294090        -2.901370
 H         2.851793         1.832691        -0.800883
 H         4.345896         0.370914        -2.037984
 H         3.566425        -1.044710        -1.355583
 H         1.263354        -0.594540         0.006564
