19
Iteration:  1366charge 0 multiplicity 1
 C         2.561902        -1.814221        -3.737649
 C         2.475803        -0.336615        -3.133824
 C         2.287086         0.921353        -3.842581
 C         1.161768         0.389488        -3.068324
 O         0.914130         0.912490        -1.724577
 C         2.137999         0.777426        -0.997388
 C         3.068325        -0.145603        -1.765992
 C         1.979215         0.335073         0.463963
 O         3.061294         0.320821         1.100720
 H         3.655518        -2.238095        -3.546798
 H         1.949834        -2.470161        -3.128429
 H         2.228979        -1.866782        -4.754292
 H         2.920701         1.802988        -3.552889
 H         2.263498         0.967808        -4.938807
 H         0.218027         0.116696        -3.560101
 H         2.583311         1.842487        -0.816194
 H         4.097934         0.271673        -1.673424
 H         3.117637        -1.132111        -1.227442
 H         0.920112         0.188141         0.811575
