19
Iteration:  2305charge 0 multiplicity 1
 C         2.557145        -1.762194        -3.742956
 C         2.459368        -0.434665        -3.015919
 C         2.222949         0.793920        -3.886682
 C         1.076509         0.278736        -2.959374
 O         0.952828         1.097124        -1.800699
 C         2.323343         0.941706        -1.031939
 C         3.267219        -0.037286        -1.784219
 C         2.017133         0.319356         0.337420
 O         2.814398         0.191969         1.247771
 H         3.510993        -1.918187        -4.148003
 H         2.281430        -2.562666        -3.090552
 H         1.866563        -1.987330        -4.587336
 H         2.547438         1.873325        -3.699590
 H         2.060587         0.577079        -5.030299
 H         0.233042        -0.363579        -3.307557
 H         2.869784         1.899692        -0.895123
 H         4.261386         0.431392        -2.061547
 H         3.613116        -0.852733        -1.236320
 H         1.018309        -0.174189         0.565961
