19
Iteration:  4418charge 0 multiplicity 1
 C         2.431432        -1.667233        -3.943817
 C         2.407730        -0.463692        -3.094418
 C         2.293931         0.811280        -3.966596
 C         1.143120         0.430621        -2.968919
 O         1.084835         0.949765        -1.725352
 C         2.299320         0.822079        -1.025549
 C         3.130892        -0.265524        -1.755864
 C         2.091942         0.248290         0.393971
 O         2.792429         0.533700         1.426378
 H         3.532310        -1.732382        -4.229518
 H         2.277299        -2.631276        -3.451295
 H         1.765918        -1.628217        -4.832732
 H         2.859186         1.732069        -3.602210
 H         2.095835         0.668262        -5.037127
 H         0.256514        -0.204575        -3.296941
 H         2.855047         1.789569        -1.124601
 H         4.214329        -0.288879        -1.830108
 H         2.897923        -1.171447        -1.148830
 H         1.254678        -0.506015         0.338896
