19
Iteration:  1228charge 0 multiplicity 1
 C         2.619180        -1.650000        -4.005865
 C         2.468675        -0.416432        -3.178884
 C         2.309779         0.969120        -3.800258
 C         1.128363         0.451001        -2.976034
 O         0.933742         0.741373        -1.622529
 C         2.282670         0.713249        -1.064071
 C         2.939830        -0.499979        -1.820975
 C         2.171174         0.388799         0.462357
 O         2.878222         0.696529         1.347397
 H         3.566514        -1.766307        -4.459324
 H         2.571378        -2.608003        -3.459535
 H         1.746735        -1.719903        -4.773551
 H         2.928384         1.809783        -3.564383
 H         2.177873         0.943599        -4.913861
 H         0.115567         0.087174        -3.451145
 H         2.662380         1.766207        -1.272594
 H         3.988854        -0.520446        -1.521540
 H         2.429945        -1.381297        -1.473639
 H         1.412463        -0.336374         0.565205
