19
Iteration:  4913charge 0 multiplicity 1
 C         2.383027        -1.676585        -3.843791
 C         2.429824        -0.397762        -3.154755
 C         2.320932         0.904035        -3.980063
 C         1.179472         0.361209        -2.980872
 O         1.063762         0.868311        -1.657127
 C         2.356817         0.777658        -1.036284
 C         3.137220        -0.231348        -1.783540
 C         2.070672         0.259868         0.375480
 O         2.766033         0.547963         1.393613
 H         3.287630        -2.197409        -4.067590
 H         1.662890        -2.441537        -3.418773
 H         2.047848        -1.576372        -4.862758
 H         3.033806         1.817337        -3.883714
 H         2.127731         0.580933        -5.023043
 H         0.349985        -0.075225        -3.506499
 H         2.817937         1.720296        -0.895163
 H         4.209760        -0.009602        -1.834695
 H         3.066662        -1.153263        -1.157039
 H         1.209794        -0.539765         0.379949
