19
Iteration:  4248
 C         2.467488        -1.703826        -3.893432
 C         2.449394        -0.407359        -3.194947
 C         2.109157         0.973582        -3.981260
 C         1.146071         0.376494        -3.004361
 O         1.159222         0.910710        -1.644126
 C         2.467908         0.728203        -1.074740
 C         3.117420        -0.417257        -1.785371
 C         2.233194         0.341150         0.333188
 O         2.582865         0.578764         1.532268
 H         3.365445        -1.822487        -4.470305
 H         2.366323        -2.603797        -3.219582
 H         1.690349        -1.648236        -4.735569
 H         2.599919         1.906034        -3.628831
 H         2.013412         0.897670        -5.022720
 H         0.183394        -0.181115        -3.228187
 H         3.192753         1.598908        -1.108109
 H         4.191800        -0.114382        -1.759996
 H         2.884168        -1.426516        -1.434723
 H         1.376153        -0.378463         0.280058
