19
Iteration:   468
 C         2.751482        -1.667552        -3.799991
 C         2.378552        -0.464911        -3.013316
 C         2.337980         0.916245        -3.748604
 C         1.145590         0.321619        -3.076064
 O         0.880627         0.972725        -1.848297
 C         2.147868         0.891573        -1.077263
 C         2.882029        -0.342496        -1.557740
 C         2.089927         0.642249         0.466607
 O         2.988134         0.101531         1.054430
 H         2.471268        -2.522712        -3.187203
 H         2.344298        -1.836609        -4.828920
 H         3.922728        -1.535662        -4.001263
 H         3.099381         1.675900        -3.556042
 H         2.335191         0.884317        -4.892739
 H         0.307189        -0.016339        -3.594972
 H         2.815761         1.773685        -1.389740
 H         3.909077        -0.221829        -1.420955
 H         2.510685        -1.167407        -0.993837
 H         1.202270         0.950359         0.895533
