19
Iteration:     8
 C         2.736837        -1.759406        -3.788725
 C         2.519083        -0.370814        -3.087181
 C         2.151863         0.901876        -3.913139
 C         1.108379         0.326950        -2.952986
 O         0.969218         0.839049        -1.679679
 C         2.175517         0.896871        -1.060465
 C         3.155250        -0.152080        -1.752734
 C         2.010899         0.618720         0.411566
 O         2.829602         0.123561         1.150415
 H         2.435158        -2.722506        -3.254663
 H         2.205144        -1.850872        -4.687361
 H         3.778591        -1.617588        -4.055561
 H         2.808907         1.697152        -3.486282
 H         2.217308         0.792630        -4.986521
 H         0.161238        -0.046541        -3.398988
 H         2.841395         1.859811        -1.103420
 H         4.209705         0.053642        -1.639434
 H         3.079009        -1.094728        -1.231642
 H         0.809237         0.714109         0.692789
