19
Iteration:  3065
 C         2.583668        -1.745759        -3.848238
 C         2.488227        -0.436360        -3.053881
 C         2.086241         0.856066        -3.852116
 C         1.142985         0.182578        -2.961697
 O         1.027897         0.953086        -1.736284
 C         2.221853         0.913467        -1.025415
 C         3.267781         0.024120        -1.729005
 C         1.965180         0.498762         0.414784
 O         2.886068         0.066913         1.124497
 H         3.411872        -1.682517        -4.563464
 H         2.722690        -2.574817        -3.097402
 H         1.703666        -1.807420        -4.498208
 H         2.468662         1.870655        -3.540647
 H         2.048516         0.635105        -4.928853
 H         0.234183        -0.313651        -3.302042
 H         2.628999         1.974648        -0.908535
 H         4.165679         0.711765        -1.991250
 H         3.677505        -0.635962        -0.919285
 H         0.870326         0.713040         0.858773
