19
Iteration:  3955charge 0 multiplicity 1
 C         2.597998        -1.745374        -3.700192
 C         2.527976        -0.310588        -3.192196
 C         2.070548         0.926371        -3.900876
 C         1.080638         0.339238        -3.020726
 O         1.050559         1.064248        -1.766814
 C         2.344411         0.762553        -1.020483
 C         3.160539        -0.322764        -1.750665
 C         1.935218         0.347235         0.394299
 O         2.894427         0.309970         1.234974
 H         3.691069        -1.870600        -3.826085
 H         2.262141        -2.379372        -2.908659
 H         1.946759        -2.009358        -4.507985
 H         2.460379         1.855538        -3.613644
 H         1.959999         1.087052        -5.043051
 H         0.057180        -0.053094        -3.159258
 H         3.077145         1.580570        -0.934107
 H         4.247898        -0.027219        -1.857946
 H         3.228156        -1.269980        -1.265845
 H         0.969032        -0.115742         0.568530
