19
Iteration:   548
 C         2.451159        -1.709609        -4.033328
 C         2.534194        -0.453406        -3.194261
 C         2.208917         1.009222        -3.917391
 C         1.294375         0.299310        -2.953908
 O         1.111367         0.752656        -1.661368
 C         2.322465         0.703318        -1.038185
 C         3.265897        -0.360245        -1.861632
 C         1.985050         0.748814         0.473658
 O         2.573982         0.327650         1.493862
 H         2.072343        -2.532131        -3.395933
 H         1.753960        -1.604851        -4.825833
 H         3.628390        -2.005519        -4.273512
 H         2.534575         1.964057        -3.512860
 H         1.992546         0.962334        -4.954124
 H         0.232930        -0.052800        -3.264617
 H         2.916322         1.631368        -1.349595
 H         4.282001         0.015956        -1.961508
 H         3.413510        -1.268628        -1.386531
 H         1.086656         1.484801         0.575707
