19
Iteration:  4559charge 0 multiplicity 1
 C         2.553051        -1.738218        -3.839702
 C         2.470955        -0.370779        -3.138936
 C         2.385618         1.013608        -3.794501
 C         1.178176         0.457398        -3.028410
 O         0.952971         0.757548        -1.675192
 C         2.176176         0.723278        -1.093688
 C         2.929420        -0.415986        -1.744749
 C         2.070834         0.553241         0.448347
 O         2.966977         0.418164         1.178650
 H         3.603518        -2.070235        -3.801601
 H         2.001017        -2.434331        -3.280293
 H         2.185158        -1.761626        -4.841623
 H         2.934471         1.874577        -3.416564
 H         2.443551         0.772557        -4.888785
 H         0.145594         0.262318        -3.469658
 H         2.622224         1.716355        -1.311571
 H         3.986367        -0.174733        -1.618332
 H         2.836067        -1.389020        -1.322744
 H         0.980309         0.461395         0.852376
