19
Iteration:    46charge 0 multiplicity 1
 C         2.756636        -1.641963        -3.678614
 C         2.406784        -0.370215        -3.073288
 C         2.287412         0.921760        -3.828102
 C         1.094300         0.333578        -3.085746
 O         0.902860         0.921697        -1.808312
 C         2.110962         0.748434        -1.040790
 C         2.968682        -0.295678        -1.711782
 C         2.052745         0.457811         0.462463
 O         3.026621         0.284460         1.104421
 H         2.443235        -2.517271        -3.202583
 H         2.492518        -1.636659        -4.778090
 H         3.853348        -1.655674        -3.678591
 H         2.832008         1.753978        -3.414317
 H         2.445016         0.802613        -4.915471
 H         0.143901         0.057687        -3.527911
 H         2.564860         1.727796        -1.145691
 H         4.024852         0.037231        -1.613151
 H         2.868473        -1.317703        -1.287266
 H         0.951978         0.341967         0.946000
