19
Iteration:  4582charge 0 multiplicity 1
 C         2.612606        -1.778506        -3.977082
 C         2.372382        -0.467542        -3.197014
 C         2.413505         0.904540        -3.881852
 C         1.188799         0.414525        -3.102957
 O         0.886514         0.885079        -1.703967
 C         2.243794         0.821155        -0.970148
 C         2.943873        -0.342702        -1.713506
 C         2.028830         0.509928         0.554022
 O         3.014748         0.409390         1.298011
 H         3.672868        -1.805992        -3.980619
 H         2.280914        -2.604735        -3.484672
 H         2.234177        -1.792434        -4.995396
 H         3.047281         1.659279        -3.621778
 H         1.847022         1.010078        -4.827098
 H         0.247257         0.201510        -3.617912
 H         2.618318         1.856479        -1.072144
 H         3.967017        -0.394090        -1.608021
 H         2.651222        -1.261698        -1.261887
 H         0.997422         0.423990         1.087457
