19
Iteration:  1176
 C         2.436727        -1.699143        -3.976731
 C         2.460765        -0.421059        -3.159941
 C         2.397438         0.958046        -3.807959
 C         1.191820         0.337026        -3.012897
 O         0.841526         0.794108        -1.656344
 C         2.229003         0.669921        -0.965904
 C         3.159600        -0.279106        -1.804307
 C         2.108735         0.235031         0.450635
 O         2.911515         0.700962         1.267836
 H         3.305663        -2.239472        -3.752664
 H         1.620943        -2.419489        -3.696533
 H         2.290842        -1.594803        -5.077964
 H         2.984077         1.762306        -3.396576
 H         2.247744         1.193906        -4.854257
 H         0.179827         0.181725        -3.621059
 H         2.538816         1.726709        -0.965287
 H         4.050110         0.311530        -1.874639
 H         3.335227        -1.221034        -1.318144
 H         1.214576        -0.486901         0.761839
