19
Iteration:  3551charge 0 multiplicity 1
 C         2.751896        -1.764294        -3.738869
 C         2.433928        -0.359831        -3.168131
 C         2.178701         0.923916        -3.914524
 C         1.027739         0.484071        -3.057728
 O         0.936078         0.828121        -1.702438
 C         2.223436         0.803236        -0.966773
 C         3.135280        -0.233157        -1.777592
 C         2.039301         0.347231         0.444676
 O         2.949508         0.359988         1.217172
 H         3.719533        -1.694174        -4.300768
 H         2.772492        -2.567316        -3.033298
 H         2.130706        -2.143010        -4.591363
 H         2.866604         1.751948        -3.762374
 H         1.812811         0.935869        -4.952602
 H         0.034771         0.131449        -3.355095
 H         2.588237         1.869795        -0.948407
 H         4.214966        -0.026153        -1.866539
 H         2.857571        -1.229332        -1.470563
 H         0.975615         0.286039         0.851901
