19
Iteration:  2700charge 0 multiplicity 1
 C         2.576375        -1.782049        -3.806013
 C         2.396106        -0.306071        -3.264712
 C         2.099493         0.898967        -4.022083
 C         1.133022         0.369789        -2.957620
 O         1.178641         0.932691        -1.602317
 C         2.421803         0.716927        -0.987575
 C         3.236847        -0.224926        -2.002212
 C         2.042711         0.243634         0.415850
 O         2.618283         0.550760         1.506867
 H         3.467894        -1.878883        -4.395175
 H         2.616236        -2.605555        -2.965436
 H         1.741586        -2.186090        -4.496918
 H         2.734595         1.759047        -3.889290
 H         1.597378         0.877862        -5.078561
 H         0.102231         0.105299        -3.276497
 H         3.031668         1.599668        -0.824372
 H         4.275013         0.021479        -2.224783
 H         3.276950        -1.279625        -1.630345
 H         1.153947        -0.391269         0.472282
