19
Iteration:  3601charge 0 multiplicity 1
 C         2.584696        -1.597132        -4.065383
 C         2.494428        -0.496985        -3.064325
 C         2.230319         0.931445        -3.727612
 C         1.216785         0.207109        -3.001897
 O         0.927710         0.782623        -1.684620
 C         2.216783         0.778996        -1.044391
 C         3.093461        -0.311320        -1.714194
 C         1.973193         0.488083         0.499397
 O         2.954711         0.536885         1.190314
 H         3.575586        -1.820951        -4.442151
 H         2.029788        -2.474844        -3.622069
 H         2.037927        -1.438619        -5.022130
 H         2.664906         1.908467        -3.188697
 H         2.359822         1.019479        -4.776251
 H         0.211314         0.008201        -3.482234
 H         2.711913         1.720459        -1.266778
 H         4.113489         0.090931        -1.792436
 H         2.972118        -1.342006        -1.255497
 H         1.115703        -0.046876         0.841289
