19
Iteration:  1076charge 0 multiplicity 1
 C         2.638102        -1.676994        -3.966051
 C         2.399883        -0.448911        -3.049885
 C         2.230362         0.763218        -3.923867
 C         1.150578         0.357611        -2.961632
 O         0.956879         1.013236        -1.724794
 C         2.300213         0.913369        -1.019492
 C         3.057348        -0.271412        -1.738392
 C         2.092743         0.430447         0.458142
 O         2.878446         0.274919         1.307827
 H         3.332638        -1.418776        -4.669887
 H         2.936400        -2.542567        -3.360600
 H         1.837242        -2.012928        -4.693941
 H         2.769134         1.711044        -3.841075
 H         1.919632         0.539252        -4.962034
 H         0.157134         0.071595        -3.340346
 H         2.773473         1.877752        -1.139220
 H         4.144554        -0.064281        -1.854857
 H         2.937337        -1.158460        -1.063532
 H         1.022806         0.319295         0.677196
