19
Iteration:  3552
 C         2.752569        -1.763608        -3.741626
 C         2.436627        -0.356334        -3.165697
 C         2.191731         0.926073        -3.917678
 C         1.024456         0.484388        -3.053426
 O         0.934948         0.823293        -1.703674
 C         2.220346         0.800477        -0.968805
 C         3.134939        -0.236443        -1.780873
 C         2.027318         0.353799         0.442060
 O         2.959873         0.361579         1.222182
 H         3.714010        -1.675726        -4.310330
 H         2.749163        -2.559457        -3.024523
 H         2.109035        -2.096372        -4.563647
 H         2.835671         1.721917        -3.781056
 H         1.808629         0.939337        -4.961397
 H         0.051696         0.110381        -3.317262
 H         2.550932         1.871001        -0.953074
 H         4.215486        -0.067942        -1.850198
 H         2.836439        -1.221361        -1.472571
 H         0.982997         0.259153         0.829703
