19
Iteration:  4713
 C         2.382861        -1.734863        -3.767950
 C         2.467567        -0.436614        -3.129802
 C         2.252220         0.916774        -3.883734
 C         1.211873         0.422793        -2.991545
 O         1.074992         0.962724        -1.696586
 C         2.356272         0.749484        -1.007468
 C         3.199295        -0.280620        -1.786573
 C         2.071986         0.178050         0.338586
 O         2.682160         0.582835         1.262977
 H         3.357875        -2.214802        -4.054395
 H         1.868241        -2.515659        -3.274992
 H         1.942036        -1.637146        -4.800317
 H         2.863722         1.764905        -3.583888
 H         2.002665         0.969692        -4.880578
 H         0.235617         0.122327        -3.215229
 H         2.910988         1.644705        -0.871483
 H         4.106634         0.254895        -1.932992
 H         3.345155        -1.287918        -1.350863
 H         1.570264        -0.858210         0.306058
