19
Iteration:  3588charge 0 multiplicity 1
 C         2.582259        -1.647539        -3.994536
 C         2.520758        -0.385984        -3.086053
 C         2.245609         0.927429        -3.802951
 C         1.116661         0.279985        -3.020691
 O         0.916083         0.764850        -1.759600
 C         2.170982         0.830373        -1.042611
 C         3.115341        -0.282688        -1.655260
 C         2.070900         0.435363         0.450141
 O         2.979042         0.463750         1.225579
 H         3.571884        -1.849059        -4.420444
 H         2.310360        -2.614017        -3.490879
 H         1.847733        -1.371605        -4.708536
 H         2.593001         1.860016        -3.317147
 H         2.182572         0.920614        -4.867294
 H         0.310691        -0.325797        -3.463077
 H         2.557496         1.862758        -0.971345
 H         4.166469        -0.241715        -1.397258
 H         2.872585        -1.154741        -1.007853
 H         1.025058         0.113021         0.667147
