19
Iteration:   441charge 0 multiplicity 1
 C         2.730609        -1.761865        -3.761738
 C         2.456200        -0.391813        -3.136651
 C         2.413844         0.890631        -3.900184
 C         1.161997         0.456753        -3.140646
 O         0.882933         0.952906        -1.671610
 C         2.063630         0.839100        -0.994419
 C         2.901900        -0.295417        -1.646479
 C         1.998593         0.522809         0.495236
 O         3.024319         0.193850         1.062201
 H         2.498369        -2.513050        -2.892373
 H         2.219712        -2.001902        -4.737425
 H         3.731392        -1.932499        -3.958659
 H         3.063227         1.783631        -3.773345
 H         2.450990         0.648445        -4.931350
 H         0.126617         0.160389        -3.562299
 H         2.710064         1.713664        -1.085713
 H         4.058662        -0.141357        -1.485551
 H         2.512432        -1.334104        -1.195294
 H         1.014679         0.884948         1.042631
