19
Iteration:  1320
 C         2.547498        -1.685373        -3.993280
 C         2.465700        -0.371411        -3.189081
 C         2.301479         0.929616        -3.817383
 C         1.152548         0.352868        -2.995358
 O         0.961454         0.696416        -1.657735
 C         2.244782         0.814226        -1.063363
 C         3.071345        -0.355574        -1.794402
 C         2.094689         0.550469         0.465278
 O         2.885897         0.448942         1.338518
 H         3.564220        -2.197495        -4.145036
 H         1.999969        -2.437438        -3.374577
 H         1.995465        -1.591122        -4.888509
 H         2.897577         1.756970        -3.533816
 H         2.060381         0.995393        -4.963006
 H         0.206150         0.166150        -3.341573
 H         2.840640         1.802347        -1.182934
 H         4.158822        -0.227111        -1.658170
 H         2.827298        -1.137026        -1.140004
 H         0.983956         0.462093         0.649033
