19
Iteration:  4561
 C         2.571492        -1.751435        -3.839967
 C         2.469452        -0.381309        -3.151441
 C         2.378840         1.014931        -3.829280
 C         1.172581         0.469201        -3.020361
 O         0.949503         0.757781        -1.669715
 C         2.166402         0.731302        -1.084395
 C         2.929157        -0.404103        -1.737893
 C         2.058138         0.557108         0.448607
 O         2.984671         0.413960         1.197261
 H         3.580238        -2.098530        -3.885895
 H         2.002373        -2.456973        -3.313943
 H         2.199397        -1.762186        -4.876469
 H         2.922277         1.765030        -3.386953
 H         2.496686         0.797206        -4.869230
 H         0.192307         0.308023        -3.465853
 H         2.646936         1.751398        -1.267420
 H         3.931876        -0.213244        -1.618629
 H         2.800089        -1.383213        -1.332796
 H         0.956799         0.456036         0.811161
