19
Iteration:  3645
 C         2.675488        -1.640873        -4.040401
 C         2.413137        -0.349990        -3.295553
 C         2.281144         1.046829        -3.808685
 C         1.121284         0.347373        -3.000716
 O         0.983534         0.593399        -1.614330
 C         2.244535         0.677226        -0.974346
 C         2.970104        -0.605572        -1.854138
 C         2.101390         0.542683         0.527888
 O         2.893357         0.733723         1.402779
 H         3.704279        -1.814509        -4.182741
 H         2.109419        -2.521729        -3.693625
 H         2.414259        -1.563793        -5.130802
 H         2.893567         1.985827        -3.558076
 H         1.918173         1.024937        -4.862273
 H         0.175632         0.257867        -3.579891
 H         2.822533         1.616387        -1.084684
 H         3.958502        -0.204131        -1.920463
 H         2.811957        -1.576712        -1.380359
 H         1.102798         0.090920         0.800731
