19
Iteration:  1808
 C         2.735873        -1.538239        -4.084069
 C         2.432471        -0.487986        -3.034934
 C         2.283488         0.849102        -3.698492
 C         1.112208         0.223574        -2.986949
 O         0.951237         0.798676        -1.659006
 C         2.221608         0.823665        -1.083552
 C         2.884838        -0.382853        -1.611394
 C         2.015751         0.632355         0.380007
 O         3.001866         0.426887         1.148883
 H         3.770861        -1.527794        -4.175390
 H         2.596365        -2.525349        -3.721449
 H         2.281778        -1.335622        -5.073848
 H         2.773450         1.722807        -3.389621
 H         2.340218         0.922502        -4.854524
 H         0.184303        -0.090704        -3.386551
 H         2.752265         1.766620        -1.252167
 H         3.954525        -0.384426        -1.518141
 H         2.473515        -1.293176        -1.147815
 H         1.014098         0.437538         0.775258
