19
Iteration:  2557
 C         2.490974        -1.746053        -3.767317
 C         2.512676        -0.361462        -3.078160
 C         2.279570         0.821465        -4.008367
 C         1.163169         0.325330        -3.012134
 O         0.942438         0.864873        -1.665868
 C         2.206124         0.903947        -1.016056
 C         3.200761        -0.113937        -1.752288
 C         2.044400         0.402291         0.412795
 O         2.879041         0.254540         1.218249
 H         3.407150        -2.118974        -4.017418
 H         2.046049        -2.374867        -2.961061
 H         1.972369        -1.812995        -4.770349
 H         2.740121         1.875976        -3.774193
 H         2.128083         0.966578        -5.058975
 H         0.217676         0.005869        -3.442042
 H         2.697871         1.867072        -1.138203
 H         4.200962         0.329933        -1.820047
 H         3.352575        -1.004506        -1.193599
 H         0.948337         0.309131         0.656675
