19
Iteration:    33charge 0 multiplicity 1
 C         2.842274        -1.699064        -3.743832
 C         2.406545        -0.411216        -3.102673
 C         2.307558         0.921576        -3.798395
 C         1.135662         0.348900        -2.992058
 O         0.902374         0.878696        -1.726115
 C         2.150839         0.900053        -1.062474
 C         2.912307        -0.255390        -1.717281
 C         2.006666         0.477603         0.348741
 O         3.002310         0.216361         1.108948
 H         2.307782        -2.372559        -3.060835
 H         2.470644        -1.953520        -4.652588
 H         3.892695        -1.796642        -3.708089
 H         2.714315         1.888412        -3.589155
 H         1.860040         0.829612        -4.780528
 H         0.265502         0.144344        -3.585694
 H         2.809573         1.817673        -1.042680
 H         3.944491        -0.063614        -1.880691
 H         2.887218        -1.111581        -1.109048
 H         0.856667         0.441373         0.751616
