19
Iteration:    91
 C         2.584349        -1.617217        -3.961129
 C         2.475106        -0.398484        -3.125990
 C         2.373373         0.890633        -3.833768
 C         1.192390         0.328129        -3.024006
 O         0.899819         0.707102        -1.679762
 C         2.219439         0.768369        -1.037110
 C         3.043852        -0.309516        -1.736978
 C         2.008537         0.486287         0.433842
 O         2.915608         0.519076         1.294973
 H         2.184782        -2.442037        -3.520350
 H         2.033590        -1.388055        -4.940194
 H         3.597705        -1.907820        -4.254678
 H         3.031263         1.653586        -3.369536
 H         2.247116         1.048027        -4.909250
 H         0.279790        -0.134561        -3.433742
 H         2.673576         1.772917        -1.171078
 H         4.159737        -0.168153        -1.629600
 H         2.669930        -1.268728        -1.292125
 H         0.937259         0.176879         0.761999
