19
Iteration:  1887charge 0 multiplicity 1
 C         2.523267        -1.586307        -3.966037
 C         2.478222        -0.397948        -3.148341
 C         2.303293         0.959070        -3.797516
 C         1.152212         0.316006        -2.985435
 O         0.992029         0.611893        -1.641868
 C         2.282195         0.763432        -1.082029
 C         3.103099        -0.339589        -1.718820
 C         2.054252         0.505994         0.386074
 O         2.850421         0.543872         1.295082
 H         3.457357        -1.872870        -4.313091
 H         2.007902        -2.379083        -3.335079
 H         1.925660        -1.557754        -4.819628
 H         2.896022         1.947693        -3.652023
 H         2.268442         0.838628        -4.877175
 H         0.137608         0.090547        -3.425613
 H         2.587678         1.767276        -1.187932
 H         4.186580        -0.184177        -1.702633
 H         2.944457        -1.286143        -1.196012
 H         0.980113         0.232222         0.468718
