19
Iteration:  2116charge 0 multiplicity 1
 C         2.459767        -1.689589        -3.711437
 C         2.467175        -0.355656        -3.002682
 C         2.051222         0.720728        -4.007769
 C         1.142814         0.315269        -2.889320
 O         1.156376         1.061579        -1.648647
 C         2.375643         0.787572        -1.007473
 C         3.445948        -0.030148        -1.944569
 C         2.088940         0.089397         0.241484
 O         2.537693         0.452584         1.312032
 H         3.341735        -1.776436        -4.250410
 H         2.119308        -2.626357        -3.151338
 H         1.803261        -1.594966        -4.521797
 H         2.657927         1.550841        -3.901864
 H         1.698950         0.407227        -5.070319
 H         0.185490        -0.211080        -2.992542
 H         2.898691         1.626925        -0.597363
 H         4.231099         0.642402        -2.303806
 H         3.960768        -0.849383        -1.425527
 H         1.241615        -0.696955         0.128175
