19
Iteration:   296charge 0 multiplicity 1
 C         2.421704        -1.646738        -4.061109
 C         2.336504        -0.433114        -3.128193
 C         2.267068         0.890957        -3.834688
 C         1.196086         0.362087        -2.819951
 O         1.217030         0.887207        -1.527323
 C         2.632548         0.718747        -1.074707
 C         3.188563        -0.478594        -1.951736
 C         2.275819         0.202789         0.359840
 O         2.201937         0.848591         1.377957
 H         2.486407        -2.593180        -3.483324
 H         1.698595        -1.598412        -4.812865
 H         3.365044        -1.695193        -4.530613
 H         2.920531         1.738966        -3.531784
 H         2.064829         0.894715        -4.948844
 H         0.209804         0.048878        -3.190758
 H         3.167094         1.668789        -1.054031
 H         4.283525        -0.410964        -2.087558
 H         2.905453        -1.479844        -1.423881
 H         1.987018        -0.980962         0.254080
