19
Iteration:  2364charge 0 multiplicity 1
 C         2.678099        -1.771699        -3.656828
 C         2.418374        -0.346219        -3.154578
 C         2.164973         0.933182        -3.967355
 C         1.097574         0.311259        -3.049385
 O         0.985168         0.954445        -1.763431
 C         2.245696         0.775749        -1.123889
 C         3.101584        -0.176807        -1.808103
 C         2.057765         0.512623         0.504777
 O         2.890458         0.182557         1.322972
 H         3.790257        -1.938767        -4.008197
 H         2.612602        -2.440399        -2.829059
 H         2.037975        -1.946845        -4.493614
 H         2.906910         1.654958        -3.591367
 H         2.001429         0.932811        -5.000247
 H         0.172373        -0.103752        -3.383914
 H         2.807116         1.734210        -1.124508
 H         4.062360         0.230014        -1.989272
 H         3.082386        -1.275597        -1.530428
 H         0.970372         0.839815         0.720889
