19
Iteration:  3389charge 0 multiplicity 1
 C         2.602483        -1.685859        -3.565879
 C         2.530098        -0.320685        -3.022992
 C         2.086004         0.777819        -3.954698
 C         1.068797         0.136004        -2.901375
 O         1.100111         0.997676        -1.835390
 C         2.223595         1.003417        -1.032741
 C         3.195000         0.087840        -1.685160
 C         1.928349         0.499102         0.406026
 O         2.911768        -0.110621         0.946424
 H         3.479252        -1.586759        -4.257758
 H         2.602931        -2.424957        -2.747125
 H         1.880985        -1.873422        -4.315035
 H         2.230823         1.852233        -3.666288
 H         2.168768         0.577172        -4.944922
 H         0.190435        -0.472940        -3.163573
 H         2.633265         1.996104        -0.866669
 H         4.191031         0.540132        -1.937849
 H         3.394633        -0.845485        -1.102678
 H         1.054847         0.799064         0.950829
