19
Iteration:  2739charge 0 multiplicity 1
 C         2.378168        -1.662281        -3.924589
 C         2.430254        -0.416560        -3.141180
 C         2.229532         0.822328        -3.860570
 C         1.154017         0.257527        -2.914729
 O         1.091744         0.921533        -1.637941
 C         2.384885         0.797478        -0.981159
 C         3.233819        -0.159731        -1.889871
 C         2.224016         0.112309         0.287739
 O         2.563025         0.664307         1.362680
 H         3.414623        -2.027278        -4.252976
 H         1.974654        -2.432621        -3.340536
 H         2.039638        -1.309354        -4.859669
 H         2.659624         1.716404        -3.485280
 H         2.151839         0.645773        -4.919070
 H         0.162970        -0.147471        -3.193650
 H         2.779891         1.848359        -0.911730
 H         4.321002         0.194774        -1.758872
 H         3.228710        -1.181916        -1.351184
 H         1.991786        -0.941432         0.234792
