19
Iteration:   488
 C         2.772314        -1.692784        -3.869304
 C         2.437571        -0.450351        -3.054482
 C         2.345277         0.858985        -3.760018
 C         1.133396         0.338408        -3.021843
 O         0.912787         0.944117        -1.703333
 C         2.237528         0.774133        -1.049381
 C         2.969054        -0.368806        -1.645740
 C         2.049793         0.772887         0.432008
 O         2.850176         0.159177         1.043766
 H         2.374101        -2.620360        -3.353853
 H         2.231153        -1.576622        -4.899596
 H         3.798747        -1.895201        -4.199968
 H         2.619787         1.838971        -3.342354
 H         2.384377         0.967237        -4.905591
 H         0.134641         0.122842        -3.346427
 H         2.755023         1.766399        -1.143540
 H         4.063084        -0.245030        -1.615560
 H         2.627133        -1.395603        -1.274546
 H         1.088864         1.325811         0.914533
