19
Iteration:  3727
 C         2.503351        -1.722511        -4.174900
 C         2.404923        -0.442934        -3.228297
 C         2.285446         0.971607        -3.764902
 C         1.193064         0.392908        -2.963460
 O         1.005660         0.749311        -1.612575
 C         2.282816         0.672854        -1.046326
 C         3.078474        -0.389976        -1.827528
 C         2.148853         0.315632         0.455891
 O         2.734629         0.800048         1.455551
 H         3.598205        -1.629032        -4.449007
 H         2.638778        -2.614632        -3.567810
 H         1.819194        -1.861592        -4.990043
 H         3.015826         1.751507        -3.403647
 H         2.195202         0.995207        -4.781410
 H         0.242653         0.198736        -3.518738
 H         2.726766         1.657685        -1.197686
 H         4.182402        -0.123953        -1.751231
 H         3.006325        -1.361499        -1.310203
 H         1.583504        -0.622325         0.746238
