19
Iteration:  2037charge 0 multiplicity 1
 C         2.505910        -1.731372        -3.776293
 C         2.456757        -0.338692        -3.203861
 C         2.030770         0.757216        -4.115040
 C         1.200569         0.400708        -2.880181
 O         1.191480         1.015985        -1.626594
 C         2.385363         0.687192        -0.964822
 C         3.276727        -0.028536        -1.885778
 C         2.039766         0.081305         0.340534
 O         2.596328         0.535839         1.383330
 H         3.560325        -1.986221        -4.060075
 H         2.427400        -2.566903        -3.085746
 H         1.746455        -1.922914        -4.571995
 H         2.595041         1.735555        -3.994977
 H         1.552924         0.596099        -4.986550
 H         0.248314        -0.111545        -3.141361
 H         2.999702         1.503917        -0.500112
 H         4.091205         0.574006        -2.181619
 H         3.609175        -0.986266        -1.395974
 H         1.436713        -0.845119         0.300208
