19
Iteration:  4941charge 0 multiplicity 1
 C         2.481639        -1.802076        -3.920612
 C         2.404685        -0.448744        -3.233356
 C         2.250470         1.035564        -3.905556
 C         1.153298         0.371998        -2.987843
 O         1.072647         0.889323        -1.664884
 C         2.322722         0.817523        -1.089678
 C         3.117634        -0.387654        -1.734507
 C         2.101436         0.446759         0.445278
 O         2.772658         0.471290         1.404906
 H         3.570295        -2.070693        -4.216228
 H         2.183826        -2.545789        -3.204352
 H         1.901685        -1.916120        -4.916902
 H         2.959838         1.684025        -3.520862
 H         2.141617         1.055040        -4.976662
 H         0.139315         0.098824        -3.515131
 H         2.940952         1.843819        -1.115565
 H         4.175042        -0.067506        -1.704404
 H         2.910806        -1.380837        -1.221503
 H         1.193578        -0.124324         0.333670
