19
Iteration:  2043
 C         2.563793        -1.738906        -3.707534
 C         2.428149        -0.310263        -3.190030
 C         2.018703         0.746355        -4.118208
 C         1.189768         0.440561        -2.916085
 O         1.199209         1.004888        -1.616040
 C         2.418590         0.700945        -0.959546
 C         3.240383        -0.087760        -1.918482
 C         2.102198         0.095478         0.369757
 O         2.559510         0.501945         1.370206
 H         3.481400        -1.890500        -4.349712
 H         2.361355        -2.448041        -2.869377
 H         1.867436        -1.849264        -4.584722
 H         2.502401         1.699379        -4.060885
 H         1.544007         0.507825        -5.169468
 H         0.209511         0.041071        -3.039667
 H         2.800604         1.733692        -0.684878
 H         4.195580         0.538501        -2.054456
 H         3.588120        -1.046426        -1.543622
 H         1.395437        -0.802968         0.239417
