19
Iteration:  2261charge 0 multiplicity 1
 C         2.606261        -1.775247        -3.566383
 C         2.507845        -0.313780        -3.229115
 C         2.025850         0.821746        -4.153480
 C         1.139083         0.472243        -2.933232
 O         1.064975         0.993726        -1.632861
 C         2.347827         0.782586        -1.005102
 C         3.319503        -0.071185        -1.903886
 C         1.936142         0.251348         0.371980
 O         2.748212         0.261998         1.365596
 H         3.585372        -2.056976        -3.870091
 H         2.257389        -2.417624        -2.766628
 H         1.854394        -2.059943        -4.344188
 H         2.867604         1.664503        -4.168130
 H         1.707067         0.395634        -5.151938
 H         0.188037         0.145937        -3.355505
 H         2.704971         1.825395        -0.833454
 H         4.311762         0.395030        -2.211839
 H         3.665438        -1.007787        -1.594389
 H         0.881461        -0.243604         0.269794
