19
Iteration:  3244
 C         2.767612        -1.819650        -3.590875
 C         2.416559        -0.414836        -3.037158
 C         2.047353         0.770343        -3.946774
 C         1.066284         0.265279        -2.857903
 O         1.020010         1.071076        -1.715242
 C         2.271342         1.088461        -1.038357
 C         3.252975         0.102672        -1.856192
 C         2.047125         0.508672         0.385853
 O         2.776424        -0.192321         1.001197
 H         3.592779        -1.666580        -4.327415
 H         3.312682        -2.402363        -2.882681
 H         1.917227        -2.382926        -4.042134
 H         2.632737         1.698110        -3.810674
 H         1.751051         0.644953        -4.990527
 H         0.140267        -0.258434        -3.054531
 H         2.551188         2.166201        -0.884315
 H         4.205638         0.581532        -2.269340
 H         3.334798        -0.681038        -1.098254
 H         1.009073         0.954091         0.731777
