19
Iteration:  2834charge 0 multiplicity 1
 C         2.550935        -1.570631        -4.143973
 C         2.424618        -0.472921        -3.120243
 C         2.250531         0.924426        -3.849314
 C         1.197907         0.248444        -2.905573
 O         1.011416         0.843138        -1.636512
 C         2.345062         0.666849        -0.970389
 C         3.053986        -0.440518        -1.741560
 C         2.078028         0.297144         0.386879
 O         2.777680         0.783946         1.330565
 H         3.550037        -1.429918        -4.610631
 H         2.591738        -2.601855        -3.710699
 H         1.865725        -1.441776        -4.993573
 H         2.669521         1.856618        -3.392064
 H         2.095737         0.967329        -4.963993
 H         0.183259         0.072072        -3.327286
 H         2.855524         1.626997        -0.899374
 H         4.132818        -0.342456        -1.752274
 H         2.860130        -1.404031        -1.308428
 H         1.380299        -0.421357         0.651715
