19
Iteration:  4612
 C         2.593143        -1.630880        -3.926279
 C         2.409778        -0.460405        -3.064122
 C         2.264060         0.855377        -3.849476
 C         1.073768         0.347703        -3.103440
 O         1.021014         1.033895        -1.743786
 C         2.340285         0.702995        -1.005610
 C         3.060850        -0.435907        -1.639474
 C         2.017007         0.470589         0.464904
 O         2.900834         0.444472         1.240256
 H         3.622850        -1.646812        -4.470904
 H         2.353188        -2.638382        -3.454285
 H         1.967756        -1.573641        -4.839692
 H         2.649607         1.747070        -3.329517
 H         2.209222         0.838083        -4.996693
 H         0.078288        -0.085542        -3.470162
 H         2.852845         1.644533        -0.973032
 H         4.226044        -0.306474        -1.630053
 H         2.887039        -1.471958        -1.238756
 H         0.924893         0.391780         0.603211
