19
Iteration:  2573charge 0 multiplicity 1
 C         2.523234        -1.847078        -3.637154
 C         2.438336        -0.409236        -3.195905
 C         2.250266         0.984151        -3.899754
 C         1.179110         0.439069        -3.049424
 O         0.917780         0.899827        -1.750692
 C         2.239534         0.772548        -1.033111
 C         3.184878        -0.081931        -1.896989
 C         2.045424         0.398164         0.469749
 O         2.901330         0.263188         1.292342
 H         3.663829        -2.237951        -3.840441
 H         2.141453        -2.598327        -2.948476
 H         2.173421        -1.933207        -4.683514
 H         2.989300         1.700858        -3.722560
 H         1.963893         0.693468        -4.944738
 H         0.227436         0.052961        -3.454770
 H         2.522221         1.840261        -0.879013
 H         4.138096         0.455534        -2.031570
 H         3.347466        -1.027654        -1.271581
 H         1.021293         0.117897         0.678727
