19
Iteration:  4118
 C         2.629641        -1.604852        -4.051501
 C         2.406416        -0.439930        -3.090938
 C         2.263735         0.839882        -3.780875
 C         1.071156         0.357282        -2.984531
 O         0.950619         0.989707        -1.712585
 C         2.220610         0.692821        -0.995664
 C         3.106217        -0.514690        -1.767154
 C         2.028173         0.422752         0.499612
 O         2.937149         0.558229         1.245556
 H         3.679558        -1.529708        -4.331455
 H         2.493451        -2.632764        -3.677836
 H         1.933530        -1.660131        -4.892826
 H         2.818308         1.699185        -3.295154
 H         2.443895         0.758805        -4.809002
 H         0.151161         0.204490        -3.452079
 H         2.957409         1.496658        -0.923182
 H         4.225765        -0.372524        -1.834899
 H         3.031851        -1.543601        -1.406139
 H         0.970340         0.520335         0.809968
