19
Iteration:   519
 C         2.618889        -1.695473        -3.967082
 C         2.468242        -0.439654        -3.137670
 C         2.320997         0.934257        -3.895367
 C         1.173438         0.358236        -3.027259
 O         0.983358         0.715046        -1.647220
 C         2.356897         0.797089        -1.069551
 C         3.094072        -0.322063        -1.758001
 C         2.110038         0.784588         0.458989
 O         2.659236         0.240003         1.387810
 H         2.050830        -2.505335        -3.453276
 H         2.020238        -1.621063        -4.937646
 H         3.572221        -1.908781        -4.206209
 H         2.665022         1.909432        -3.621678
 H         2.186112         0.875653        -4.996252
 H         0.158060         0.093476        -3.401264
 H         2.770179         1.753001        -1.364104
 H         4.239949        -0.211346        -1.794468
 H         2.831301        -1.331830        -1.234862
 H         1.138548         1.389791         0.581352
