19
Iteration:  2642
 C         2.470195        -1.769182        -3.908710
 C         2.494210        -0.338713        -3.012843
 C         2.142404         0.775060        -3.946835
 C         1.105559         0.208995        -2.944534
 O         1.102352         1.070141        -1.759799
 C         2.326901         0.928283        -1.004877
 C         3.163480        -0.054433        -1.720796
 C         2.069423         0.253098         0.288256
 O         2.782124         0.333005         1.347339
 H         3.563519        -1.877997        -4.388528
 H         2.401766        -2.742164        -3.253751
 H         1.723381        -1.641897        -4.767864
 H         2.633102         1.722071        -3.605319
 H         2.231726         0.443922        -4.914549
 H         0.223922        -0.359373        -3.210999
 H         2.938575         1.863344        -0.888037
 H         4.274967         0.262698        -1.767110
 H         3.029598        -1.078335        -1.250805
 H         1.186154        -0.330383         0.312963
