19
Iteration:  4483
 C         2.595060        -1.726160        -4.017439
 C         2.356243        -0.384144        -3.128869
 C         2.320185         0.853675        -3.910170
 C         1.147876         0.453033        -3.074347
 O         1.018468         0.885752        -1.660515
 C         2.266297         0.701922        -1.052427
 C         3.011727        -0.416785        -1.759927
 C         2.084924         0.532060         0.540302
 O         2.875057         0.458867         1.392342
 H         3.664274        -1.760662        -4.277024
 H         2.480774        -2.586310        -3.388168
 H         1.956882        -1.847920        -4.894435
 H         2.815061         1.845620        -3.668124
 H         2.102121         0.590803        -4.986215
 H         0.100514         0.121235        -3.429292
 H         2.827288         1.704927        -1.131398
 H         4.006451        -0.030711        -1.890081
 H         2.975847        -1.385661        -1.341963
 H         1.013042         0.414592         0.800040
