19
Iteration:  3913
 C         2.517010        -1.754273        -3.961156
 C         2.405886        -0.459447        -3.108125
 C         2.219886         0.723052        -3.987979
 C         1.156905         0.400183        -2.950661
 O         1.019211         1.007306        -1.600330
 C         2.279893         0.954273        -1.013476
 C         3.309245        -0.146421        -1.843400
 C         2.036118         0.344387         0.444687
 O         2.755894         0.298603         1.387190
 H         3.415561        -1.934395        -4.667565
 H         2.417930        -2.576695        -3.275839
 H         1.596942        -1.832639        -4.496129
 H         2.940562         1.490577        -3.994159
 H         2.050874         0.459258        -5.128112
 H         0.204946         0.172122        -3.417998
 H         2.681406         1.950425        -1.029586
 H         4.178022         0.569114        -1.941465
 H         3.620673        -0.955322        -1.203898
 H         1.015469        -0.235912         0.279883
