19
Iteration:   191
 C         2.542176        -1.707277        -4.119470
 C         2.445755        -0.428749        -3.222453
 C         2.329438         0.930543        -3.731052
 C         1.104442         0.398162        -2.905461
 O         1.129578         0.867208        -1.540476
 C         2.411221         0.659531        -1.051420
 C         3.003045        -0.501468        -1.869197
 C         2.349128         0.207809         0.370874
 O         2.377809         0.925184         1.376029
 H         2.176531        -2.583524        -3.737396
 H         1.894205        -1.545530        -5.103159
 H         3.563658        -1.781165        -4.553536
 H         2.751671         1.773375        -3.161902
 H         2.329338         0.853386        -4.828960
 H         0.220706        -0.089485        -3.279890
 H         3.077467         1.568300        -1.022902
 H         4.139518        -0.410370        -1.870386
 H         2.814165        -1.480790        -1.373057
 H         2.303371        -0.923552         0.571157
