19
Iteration:  2435charge 0 multiplicity 1
 C         2.606583        -1.654212        -3.977441
 C         2.474922        -0.465019        -3.077810
 C         2.156897         0.951967        -3.789231
 C         1.103785         0.150117        -2.978213
 O         0.993919         0.748749        -1.718776
 C         2.328276         0.841088        -1.092312
 C         3.139375        -0.309378        -1.614511
 C         2.108587         0.938336         0.436094
 O         2.785843         0.132737         1.148783
 H         3.574508        -1.934298        -4.274058
 H         2.159315        -2.599110        -3.449817
 H         2.111815        -1.249471        -4.920067
 H         2.413304         1.887118        -3.267851
 H         2.435974         1.099540        -4.918061
 H         0.225018        -0.501867        -3.283858
 H         2.807209         1.822474        -1.325052
 H         4.208509         0.091766        -1.573804
 H         2.927699        -1.088775        -0.916845
 H         1.262763         1.655274         0.826163
