19
Iteration:  3939charge 0 multiplicity 1
 C         2.591776        -1.754040        -3.769133
 C         2.359017        -0.382947        -3.096095
 C         2.137360         0.917108        -3.952054
 C         1.153439         0.322362        -2.952264
 O         1.123828         1.013526        -1.739824
 C         2.302057         0.828898        -1.010933
 C         3.174132        -0.200186        -1.860762
 C         1.993757         0.314167         0.363267
 O         2.841907         0.310247         1.325664
 H         3.549694        -1.932968        -4.277557
 H         2.446350        -2.583825        -2.989013
 H         1.803648        -1.886346        -4.586964
 H         2.647450         1.897941        -3.650319
 H         2.073203         0.695210        -4.981617
 H         0.211865        -0.071875        -3.330995
 H         2.732766         1.860908        -0.881342
 H         4.175328         0.183717        -1.879014
 H         3.100108        -1.186511        -1.299987
 H         0.898978         0.042052         0.499098
