19
Iteration:  2828charge 0 multiplicity 1
 C         2.555269        -1.580662        -4.105235
 C         2.436479        -0.472097        -3.167919
 C         2.230334         0.971394        -3.877185
 C         1.128942         0.300845        -2.941809
 O         1.068334         0.807733        -1.621411
 C         2.346645         0.678582        -0.985523
 C         3.081317        -0.466674        -1.757968
 C         2.094502         0.280832         0.447328
 O         2.749974         0.789065         1.339440
 H         3.553121        -1.603865        -4.639274
 H         2.576146        -2.554324        -3.631910
 H         1.901547        -1.431335        -4.978850
 H         2.754861         1.872046        -3.657906
 H         1.913372         0.875675        -4.920211
 H         0.167091         0.009210        -3.360826
 H         2.993727         1.602694        -0.875079
 H         4.177093        -0.199688        -1.550975
 H         2.839466        -1.446813        -1.236944
 H         1.173294        -0.469324         0.690768
