19
Iteration:  3121charge 0 multiplicity 1
 C         2.834492        -1.735211        -3.513373
 C         2.345457        -0.386094        -3.143624
 C         1.969066         0.813599        -4.056455
 C         1.070562         0.338162        -2.972876
 O         1.046061         0.976603        -1.653229
 C         2.324442         1.013787        -1.019331
 C         3.140266         0.027238        -1.853220
 C         2.034514         0.507191         0.381932
 O         2.872575        -0.115898         1.144064
 H         3.968192        -1.754871        -3.430445
 H         2.313353        -2.612517        -3.060531
 H         2.541598        -1.800392        -4.572758
 H         2.525050         1.697514        -3.980109
 H         1.613640         0.615654        -5.165155
 H         0.097870        -0.148528        -3.264169
 H         2.838177         2.032875        -0.866643
 H         4.263155         0.367614        -2.079657
 H         3.236529        -0.883632        -1.211605
 H         0.902889         0.500082         0.557568
