19
Iteration:  2294charge 0 multiplicity 1
 C         2.581192        -1.801023        -3.650517
 C         2.434853        -0.400804        -3.113225
 C         2.116340         0.832923        -3.901406
 C         1.099984         0.299709        -2.998915
 O         1.048597         1.051568        -1.798520
 C         2.312422         0.900172        -1.050306
 C         3.286663        -0.052338        -1.874301
 C         2.010025         0.301383         0.399819
 O         2.798085         0.199837         1.304098
 H         3.546661        -1.982390        -4.022352
 H         2.415383        -2.535891        -2.883256
 H         1.842758        -1.772061        -4.474389
 H         2.764566         1.698260        -3.509707
 H         2.081076         0.750394        -5.055215
 H         0.073884        -0.034066        -3.251325
 H         2.699071         1.941225        -0.971086
 H         4.143042         0.619983        -2.136980
 H         3.494165        -0.796695        -1.188327
 H         0.920143        -0.134728         0.326956
