19
Iteration:  2864
 C         2.607442        -1.587095        -4.164159
 C         2.420605        -0.509410        -3.097128
 C         2.297264         0.957019        -3.686364
 C         1.141379         0.327332        -3.036301
 O         0.900341         0.745275        -1.702565
 C         2.254693         0.700872        -1.025856
 C         3.018393        -0.466131        -1.651295
 C         2.173464         0.408881         0.393262
 O         2.893089         0.714351         1.294210
 H         3.563588        -1.425853        -4.558229
 H         2.507847        -2.598936        -3.723107
 H         1.806275        -1.638287        -4.908143
 H         2.759853         1.812146        -3.132284
 H         2.213721         1.051849        -4.735606
 H         0.185556         0.454824        -3.487994
 H         2.680908         1.694946        -1.026912
 H         4.051857        -0.171080        -1.611344
 H         2.970675        -1.440048        -1.094645
 H         1.230667        -0.328897         0.687661
