19
Iteration:  3683
 C         2.622790        -1.536767        -4.143012
 C         2.448590        -0.439104        -3.133525
 C         2.289678         1.003947        -3.725614
 C         1.141345         0.301300        -2.970160
 O         1.007061         0.768001        -1.670241
 C         2.246788         0.631131        -1.005122
 C         2.997253        -0.577245        -1.719931
 C         2.123052         0.343908         0.458052
 O         2.824669         0.836321         1.259216
 H         3.659069        -1.796668        -4.512197
 H         2.268729        -2.392735        -3.552619
 H         1.873936        -1.399579        -4.920274
 H         2.574155         1.981930        -3.351284
 H         2.120659         0.981126        -4.781705
 H         0.168329        -0.109196        -3.265643
 H         2.787245         1.573554        -1.140620
 H         4.113859        -0.392476        -1.700809
 H         2.900618        -1.600132        -1.307654
 H         1.417644        -0.489162         0.644640
