19
Iteration:   396
 C         2.450252        -1.744962        -3.920443
 C         2.451829        -0.394681        -3.144660
 C         2.354781         0.920565        -3.843350
 C         1.155146         0.318624        -2.976880
 O         1.022405         0.826577        -1.725569
 C         2.340609         0.810965        -1.040190
 C         3.159639        -0.239625        -1.750057
 C         1.997264         0.472346         0.359447
 O         2.775736         0.391379         1.352153
 H         1.866986        -2.447540        -3.192744
 H         1.924239        -1.697620        -4.869758
 H         3.401138        -2.196372        -4.129390
 H         2.855244         1.791701        -3.393290
 H         2.503322         1.013944        -4.927355
 H         0.305469        -0.002970        -3.515527
 H         2.698669         1.844125        -1.072488
 H         4.202666         0.207385        -1.892338
 H         3.192111        -1.141966        -0.999396
 H         0.990646         0.161076         0.422531
