19
Iteration:  1620charge 0 multiplicity 1
 C         2.575965        -1.731004        -3.870359
 C         2.419024        -0.418312        -3.123524
 C         1.994426         0.807866        -3.931358
 C         1.115412         0.253933        -2.853945
 O         1.204306         1.093312        -1.593422
 C         2.482522         0.792213        -0.970260
 C         3.331686        -0.138396        -1.911154
 C         2.093729         0.120539         0.235689
 O         2.489954         0.521974         1.334977
 H         3.430878        -1.822671        -4.507715
 H         2.690565        -2.527031        -3.178254
 H         1.661303        -1.997014        -4.498780
 H         2.456693         1.753446        -3.651826
 H         1.695224         0.740625        -5.034811
 H         0.071850         0.054000        -2.908086
 H         3.069658         1.756944        -0.781908
 H         4.159480         0.506707        -2.238569
 H         3.685748        -1.021229        -1.398223
 H         1.437742        -0.780578         0.099638
