19
Iteration:  4497
 C         2.536389        -1.688491        -3.979309
 C         2.415223        -0.505421        -3.149587
 C         2.335780         0.881457        -3.946508
 C         1.170257         0.406363        -3.029974
 O         0.907027         0.835847        -1.697100
 C         2.243890         0.791438        -1.001286
 C         3.078604        -0.351244        -1.757146
 C         2.071999         0.533807         0.538309
 O         2.929893         0.444917         1.386784
 H         3.556544        -1.737327        -4.356110
 H         2.159646        -2.715547        -3.632005
 H         2.001427        -1.393168        -4.965330
 H         3.130627         1.491060        -3.697045
 H         2.361394         0.888832        -5.038128
 H         0.229539         0.120844        -3.545778
 H         2.748143         1.777443        -1.175240
 H         4.128187        -0.253175        -1.654720
 H         2.731316        -1.272735        -1.199434
 H         0.961827         0.526105         0.804058
