19
Iteration:  3659
 C         2.661967        -1.630490        -4.117580
 C         2.433208        -0.385535        -3.254548
 C         2.236094         1.060891        -3.813347
 C         1.144105         0.351903        -3.008124
 O         0.977196         0.645116        -1.630572
 C         2.294637         0.585772        -1.046997
 C         2.985954        -0.475300        -1.799966
 C         2.114116         0.433996         0.563826
 O         2.879095         0.796237         1.396928
 H         3.735050        -1.908552        -4.071159
 H         2.242443        -2.403484        -3.491096
 H         2.184011        -1.681857        -5.137532
 H         2.718165         1.822772        -3.289496
 H         2.086811         1.239543        -4.957787
 H         0.235947        -0.078146        -3.354681
 H         2.766340         1.543940        -1.217188
 H         3.999309        -0.818993        -1.592672
 H         2.411014        -1.381268        -1.503129
 H         1.108314         0.058720         0.740112
