19
Iteration:  3116
 C         2.860155        -1.747129        -3.518229
 C         2.365258        -0.341342        -3.102117
 C         1.964246         0.805515        -4.091054
 C         1.053152         0.356159        -2.999367
 O         1.030048         0.972514        -1.675176
 C         2.295060         1.018511        -1.004857
 C         3.130234        -0.001948        -1.837705
 C         2.100507         0.493714         0.368773
 O         2.860914        -0.115145         1.178858
 H         3.920385        -1.742939        -3.606252
 H         2.244092        -2.464966        -2.969496
 H         2.515937        -1.861587        -4.555345
 H         2.560798         1.777509        -4.130885
 H         1.473419         0.596308        -4.981457
 H         0.144409        -0.089480        -3.320845
 H         2.761991         1.989869        -1.006892
 H         4.125128         0.240835        -1.871250
 H         3.360607        -0.944689        -1.334648
 H         1.039418         0.508600         0.590299
