19
Iteration:  3151charge 0 multiplicity 1
 C         2.712526        -1.769073        -3.646335
 C         2.509988        -0.421948        -3.039121
 C         1.999588         0.790893        -3.836889
 C         1.094505         0.228358        -2.874039
 O         0.956975         1.098008        -1.725032
 C         2.237407         0.924796        -1.049327
 C         3.350899         0.102470        -1.832641
 C         2.044819         0.504111         0.341095
 O         2.827644        -0.088776         1.014125
 H         3.615534        -2.297603        -3.542454
 H         2.066311        -2.580199        -3.248062
 H         2.412001        -1.604527        -4.665061
 H         2.385837         1.761956        -3.691555
 H         1.696413         0.537716        -4.905110
 H         0.175151        -0.342509        -3.138408
 H         2.651570         1.903015        -0.814141
 H         4.002636         0.785511        -2.175627
 H         3.673473        -0.634977        -1.167665
 H         0.997034         0.738190         0.620714
