19
Iteration:  4869charge 0 multiplicity 1
 C         2.434937        -1.810033        -3.837700
 C         2.375594        -0.418233        -3.193933
 C         2.292491         0.947489        -3.935716
 C         1.175584         0.368244        -2.921536
 O         1.110808         1.016817        -1.702320
 C         2.344209         0.747891        -1.039022
 C         3.133948        -0.249785        -1.853076
 C         2.109297         0.142474         0.381610
 O         2.687796         0.593152         1.398808
 H         3.477477        -2.044501        -3.990254
 H         2.062020        -2.508541        -3.042954
 H         1.978191        -1.984422        -4.803443
 H         3.076192         1.614198        -3.457926
 H         2.191948         1.037084        -5.056045
 H         0.112079         0.221616        -3.239552
 H         2.858492         1.652155        -0.819400
 H         4.101651         0.156543        -2.095288
 H         3.294921        -1.299554        -1.584100
 H         1.298048        -0.588015         0.401504
