19
Iteration:  4550charge 0 multiplicity 1
 C         2.505613        -1.664169        -3.806087
 C         2.438296        -0.364084        -3.111370
 C         2.411968         1.005690        -3.694698
 C         1.176658         0.396173        -3.070374
 O         0.913724         0.765078        -1.715229
 C         2.236247         0.698986        -1.062767
 C         3.028556        -0.448219        -1.724262
 C         2.003598         0.545580         0.362279
 O         2.991695         0.428344         1.163375
 H         3.514622        -1.999826        -3.728875
 H         1.943960        -2.318456        -3.205543
 H         2.165061        -1.705808        -4.846929
 H         2.867413         1.910536        -3.588008
 H         2.095362         1.056361        -4.735229
 H         0.295494         0.055857        -3.656450
 H         2.869136         1.622398        -1.305361
 H         4.027609        -0.213596        -1.723114
 H         2.804009        -1.365719        -1.229898
 H         0.948848         0.560982         0.793353
