19
Iteration:  4417charge 0 multiplicity 1
 C         2.425897        -1.676565        -3.952352
 C         2.396888        -0.457050        -3.103320
 C         2.304762         0.805290        -3.970760
 C         1.150411         0.434636        -2.969378
 O         1.080616         0.946961        -1.724002
 C         2.296331         0.820175        -1.019286
 C         3.127778        -0.265218        -1.757601
 C         2.087312         0.243426         0.388795
 O         2.796203         0.537258         1.435071
 H         3.531398        -1.760289        -4.215093
 H         2.284105        -2.617384        -3.453570
 H         1.784974        -1.627163        -4.819712
 H         2.856014         1.769863        -3.586375
 H         2.093170         0.641819        -5.041407
 H         0.276007        -0.191836        -3.247969
 H         2.870021         1.800437        -1.110178
 H         4.240503        -0.218810        -1.830033
 H         2.914436        -1.130130        -1.145343
 H         1.272584        -0.518797         0.346428
