19
Iteration:  3275charge 0 multiplicity 1
 C         2.647175        -1.654865        -3.648216
 C         2.558342        -0.271574        -2.991872
 C         2.009375         0.618563        -4.030874
 C         1.082509         0.188231        -2.834508
 O         1.073432         1.033737        -1.746189
 C         2.271114         1.067173        -0.986086
 C         3.325868         0.103330        -1.795132
 C         1.962993         0.575283         0.391822
 O         2.763272        -0.187125         0.984249
 H         3.398396        -1.771790        -4.429025
 H         2.687880        -2.487673        -2.978312
 H         1.884717        -1.932831        -4.428311
 H         2.356987         1.704238        -3.994712
 H         1.823737         0.082416        -4.936710
 H         0.315558        -0.562124        -2.867254
 H         2.632240         2.050456        -0.750587
 H         4.333578         0.375425        -2.003181
 H         3.498311        -0.666092        -1.094196
 H         1.018312         0.879829         1.059857
