19
Iteration:  2537
 C         2.519802        -1.704583        -3.854062
 C         2.490789        -0.348124        -3.008089
 C         2.173636         0.818673        -3.877030
 C         1.213170         0.265863        -2.907006
 O         1.045244         0.846448        -1.762482
 C         2.269299         0.934132        -1.046055
 C         3.161639        -0.144110        -1.685789
 C         1.963471         0.502759         0.440879
 O         2.869154         0.243124         1.116591
 H         3.547567        -1.891504        -4.349789
 H         2.046533        -2.530692        -3.338798
 H         1.719107        -1.511468        -4.589629
 H         2.703212         1.867508        -3.769041
 H         2.167453         0.580721        -4.967101
 H         0.408066        -0.315806        -3.354472
 H         2.717629         1.938483        -1.076545
 H         4.203095         0.012686        -1.709995
 H         3.076083        -1.121411        -1.229696
 H         0.909041         0.379807         0.624442
