19
Iteration:  3528charge 0 multiplicity 1
 C         2.771227        -1.765347        -3.752238
 C         2.351351        -0.429395        -3.126175
 C         2.219036         0.912945        -3.910004
 C         1.061870         0.316133        -2.947344
 O         0.986870         0.972061        -1.699808
 C         2.213836         0.800833        -1.017371
 C         3.133704        -0.149146        -1.894312
 C         2.035320         0.422925         0.450237
 O         2.893696         0.263150         1.231925
 H         3.773072        -1.666811        -4.181390
 H         2.563283        -2.545625        -3.035914
 H         2.086355        -1.938356        -4.639310
 H         2.722027         1.881991        -3.572516
 H         1.961634         0.979918        -4.934201
 H         0.070844        -0.159003        -3.058832
 H         2.541500         1.862767        -1.037505
 H         4.056727         0.340733        -2.233998
 H         3.316513        -1.079966        -1.373101
 H         1.007950        -0.009244         0.579394
