19
Iteration:  2784
 C         2.480642        -1.750361        -3.978917
 C         2.411817        -0.373251        -3.296412
 C         2.167005         1.000078        -3.880848
 C         1.136863         0.366407        -2.955892
 O         1.147057         0.758919        -1.582426
 C         2.428409         0.693216        -1.081330
 C         3.185332        -0.299227        -1.900966
 C         2.150215         0.240344         0.508450
 O         2.587051         0.747577         1.467626
 H         3.503829        -2.219967        -4.026142
 H         2.057735        -2.412080        -3.261990
 H         2.214883        -1.768804        -5.026935
 H         2.875273         1.632137        -3.477758
 H         1.921880         1.169033        -4.962341
 H         0.170328        -0.049066        -3.310668
 H         2.819549         1.744946        -1.054184
 H         4.228055        -0.088170        -2.310270
 H         3.197007        -1.379908        -1.609758
 H         1.363479        -0.506485         0.579932
