19
Iteration:   257charge 0 multiplicity 1
 C         2.198890        -1.676452        -4.141048
 C         2.511643        -0.434996        -3.220792
 C         2.227112         1.045505        -3.854064
 C         1.302098         0.341366        -2.872644
 O         1.207513         0.751213        -1.549164
 C         2.563528         0.528693        -0.911322
 C         3.404563        -0.438450        -1.952441
 C         2.193134         0.150764         0.535696
 O         2.182967         1.039347         1.344351
 H         1.744486        -2.594290        -3.584907
 H         1.601647        -1.345314        -5.158520
 H         3.230354        -1.988850        -4.629029
 H         2.848075         1.898709        -3.769829
 H         1.846674         0.997543        -4.884767
 H         0.398908        -0.152787        -3.211366
 H         3.019240         1.567164        -0.863790
 H         4.430339        -0.071995        -2.181627
 H         3.455909        -1.458450        -1.572144
 H         1.979677        -0.940083         0.807268
