19
Iteration:  3503
 C         2.619937        -1.678328        -3.842213
 C         2.509108        -0.421198        -3.035783
 C         2.036377         0.818567        -3.962745
 C         1.152612         0.215696        -2.952236
 O         1.012943         0.969671        -1.704838
 C         2.307904         0.896578        -1.033448
 C         3.256732        -0.038121        -1.707786
 C         2.002256         0.398481         0.349754
 O         2.848617         0.193210         1.240026
 H         3.637679        -1.959472        -4.160794
 H         2.139831        -2.456756        -3.178253
 H         1.958315        -1.600633        -4.740964
 H         2.345434         1.931432        -3.890474
 H         1.944237         0.460579        -5.031551
 H         0.131951        -0.153455        -3.161217
 H         2.532385         1.955907        -0.999402
 H         4.194590         0.474481        -1.970926
 H         3.430517        -0.884828        -1.013741
 H         0.911950         0.061483         0.459236
