19
Iteration:  4349
 C         2.359142        -1.732930        -3.742829
 C         2.502287        -0.365330        -3.185529
 C         2.189439         0.942971        -3.915959
 C         1.171798         0.491652        -2.946221
 O         1.115693         0.840910        -1.655572
 C         2.435067         0.751467        -1.112633
 C         3.238159        -0.288477        -1.865623
 C         2.152788         0.195326         0.358173
 O         2.599603         0.576569         1.351027
 H         3.346856        -2.243816        -3.930790
 H         1.852388        -2.412167        -3.019011
 H         1.801079        -1.734283        -4.647691
 H         2.846028         1.784857        -3.583119
 H         1.882384         0.989648        -5.020659
 H         0.301071         0.068841        -3.422204
 H         2.799558         1.821983        -0.970006
 H         4.351356        -0.258687        -1.770501
 H         3.042476        -1.282433        -1.549881
 H         1.374063        -0.599102         0.376811
