19
Iteration:  3602
 C         2.581191        -1.598977        -4.071515
 C         2.496072        -0.495046        -3.067747
 C         2.238647         0.935216        -3.721003
 C         1.211223         0.198640        -3.003148
 O         0.930193         0.782217        -1.678338
 C         2.215479         0.779422        -1.036783
 C         3.084674        -0.318069        -1.715606
 C         1.980438         0.486390         0.503856
 O         2.947623         0.544942         1.185194
 H         3.603694        -1.811837        -4.398912
 H         2.040604        -2.475935        -3.632159
 H         2.032980        -1.416891        -5.051546
 H         2.692003         1.906166        -3.198350
 H         2.348317         1.027419        -4.803472
 H         0.202421         0.019855        -3.460687
 H         2.725336         1.703941        -1.273837
 H         4.109409         0.092691        -1.826081
 H         3.042623        -1.371189        -1.275597
 H         1.091394        -0.021068         0.818251
