19
Iteration:  1871
 C         2.540448        -1.724460        -3.917947
 C         2.535190        -0.351421        -3.164026
 C         2.262788         1.128405        -3.748858
 C         1.190036         0.340274        -3.070205
 O         0.924574         0.612326        -1.688074
 C         2.257505         0.653616        -1.070856
 C         3.086961        -0.426811        -1.802763
 C         2.045972         0.616699         0.500063
 O         2.898357         0.537704         1.302607
 H         3.619834        -1.979295        -4.271587
 H         2.140731        -2.511771        -3.291547
 H         1.859409        -1.736343        -4.889719
 H         2.586967         1.902871        -3.116146
 H         2.080159         1.175072        -4.854163
 H         0.339025        -0.069166        -3.576523
 H         2.815518         1.586127        -1.377696
 H         4.161392        -0.174520        -1.803965
 H         2.936127        -1.434693        -1.363989
 H         0.896053         0.742651         0.671864
