19
Iteration:   324charge 0 multiplicity 1
 C         2.574620        -1.770395        -3.982144
 C         2.360527        -0.380100        -3.215765
 C         2.163972         0.927084        -3.846221
 C         1.127545         0.461962        -2.886228
 O         1.230358         1.012184        -1.640661
 C         2.519512         0.640894        -1.013523
 C         3.151511        -0.470495        -1.870605
 C         2.202148         0.078333         0.402564
 O         2.369929         0.815229         1.377391
 H         2.587672        -2.476944        -3.188226
 H         1.825589        -1.937417        -4.873867
 H         3.640963        -1.955864        -4.498379
 H         2.828095         1.795496        -3.750528
 H         1.830594         0.964234        -4.835598
 H         0.017409         0.423094        -3.221892
 H         3.139346         1.548608        -0.835117
 H         4.218276        -0.306753        -1.876125
 H         2.870848        -1.418514        -1.520721
 H         1.854479        -0.961953         0.423726
