19
Iteration:   647charge 0 multiplicity 1
 C         2.638530        -1.708928        -3.670832
 C         2.399631        -0.392998        -3.083720
 C         2.428649         0.938948        -3.863408
 C         1.173320         0.489668        -3.108303
 O         0.906789         1.013065        -1.810711
 C         2.122965         0.792594        -1.011070
 C         2.911538        -0.343412        -1.615652
 C         1.979428         0.283299         0.401891
 O         3.046997         0.322118         1.067880
 H         2.327549        -2.397114        -2.904616
 H         2.196106        -1.862786        -4.626933
 H         3.762130        -2.026502        -3.604313
 H         3.022846         1.673544        -3.410923
 H         2.537977         0.810425        -4.943839
 H         0.226734         0.260612        -3.665572
 H         2.623885         1.792902        -0.973893
 H         3.988055        -0.172353        -1.502302
 H         2.763999        -1.282033        -1.173459
 H         1.064668        -0.124028         0.750108
