19
Iteration:  1192charge 0 multiplicity 1
 C         2.460882        -1.712217        -3.923902
 C         2.438845        -0.386243        -3.119542
 C         2.318526         0.984295        -3.702460
 C         1.180513         0.415017        -3.048384
 O         0.967089         0.783237        -1.727215
 C         2.111391         0.647935        -1.007826
 C         3.134855        -0.308837        -1.798310
 C         2.113172         0.177833         0.484935
 O         2.908887         0.751825         1.173752
 H         3.484927        -2.158508        -4.207299
 H         1.677807        -2.290441        -3.483504
 H         2.183889        -1.401968        -4.929358
 H         2.864447         1.738079        -3.107978
 H         2.379091         0.926770        -4.811651
 H         0.353669         0.002448        -3.445640
 H         2.644309         1.587077        -0.881246
 H         4.241916        -0.011081        -1.824184
 H         3.151049        -1.365853        -1.221598
 H         1.527207        -0.650248         0.809779
