19
Iteration:   272charge 0 multiplicity 1
 C         2.260306        -1.688206        -4.191537
 C         2.476841        -0.478993        -3.209735
 C         2.200994         0.946059        -3.821181
 C         1.263016         0.327164        -2.901919
 O         1.282138         0.810442        -1.543738
 C         2.571029         0.613104        -0.998500
 C         3.322357        -0.411423        -1.895472
 C         2.249429         0.225506         0.485225
 O         2.159695         0.954527         1.392346
 H         1.947719        -2.544665        -3.686480
 H         1.494624        -1.299862        -4.866612
 H         3.143484        -2.065792        -4.780202
 H         2.743361         1.821780        -3.354403
 H         2.074604         1.072897        -4.887446
 H         0.159585         0.039415        -3.103164
 H         3.132215         1.522603        -0.898784
 H         4.311111         0.019991        -2.068011
 H         3.443954        -1.475658        -1.389461
 H         1.968686        -0.972847         0.526184
