19
Iteration:  1043charge 0 multiplicity 1
 C         2.509652        -1.802332        -3.704233
 C         2.457521        -0.357909        -3.121977
 C         2.272012         1.028982        -3.871170
 C         1.217993         0.385523        -3.007065
 O         1.004981         0.860231        -1.718720
 C         2.264946         0.817095        -1.028250
 C         3.082197        -0.221337        -1.818272
 C         1.963956         0.389057         0.375681
 O         2.927359         0.279634         1.170183
 H         3.130417        -1.889445        -4.521003
 H         3.144418        -2.328321        -2.979991
 H         1.464866        -2.335823        -3.712378
 H         2.706223         1.981847        -3.404960
 H         1.946069         1.033878        -4.877126
 H         0.302181         0.096480        -3.410495
 H         2.649516         1.827668        -0.994292
 H         4.149661         0.065647        -2.003581
 H         3.180849        -1.201155        -1.242904
 H         0.819148         0.378422         0.678393
