19
Iteration:  4433charge 0 multiplicity 1
 C         2.544887        -1.671261        -3.903537
 C         2.421367        -0.395495        -3.109207
 C         2.189570         0.883862        -3.861626
 C         1.158362         0.289719        -3.006398
 O         1.072874         0.997260        -1.706009
 C         2.409739         0.830951        -1.050996
 C         3.089621        -0.424004        -1.732923
 C         2.061724         0.338417         0.311845
 O         2.787074         0.500520         1.363805
 H         3.435431        -1.845143        -4.492513
 H         2.333128        -2.601208        -3.281922
 H         1.689290        -1.511356        -4.638778
 H         2.703678         1.739483        -3.557970
 H         2.055195         0.703695        -4.918031
 H         0.136959         0.200735        -3.358538
 H         2.981752         1.730542        -0.971105
 H         4.154880        -0.164687        -1.669535
 H         2.741497        -1.387452        -1.196957
 H         1.135734        -0.306506         0.457582
