19
Iteration:  1201charge 0 multiplicity 1
 C         2.469219        -1.649510        -3.925360
 C         2.457026        -0.393063        -3.112569
 C         2.336731         1.010776        -3.752606
 C         1.156900         0.361790        -3.045348
 O         0.979340         0.766813        -1.732651
 C         2.210892         0.654073        -0.979918
 C         3.051267        -0.381469        -1.736782
 C         2.088773         0.194604         0.432082
 O         2.923410         0.766841         1.179270
 H         3.516037        -2.096675        -4.055790
 H         1.942212        -2.523073        -3.513350
 H         1.928887        -1.506827        -4.801518
 H         2.791987         1.946697        -3.275884
 H         2.322557         1.197805        -4.796553
 H         0.205907         0.213178        -3.474902
 H         2.574988         1.641347        -0.969352
 H         4.050503         0.090899        -1.596708
 H         2.953558        -1.485976        -1.272196
 H         1.646253        -0.833469         0.711972
