19
Iteration:  2604charge 0 multiplicity 1
 C         2.586499        -1.809378        -3.598972
 C         2.413362        -0.374886        -3.213711
 C         2.230844         0.919281        -3.964526
 C         1.102402         0.451684        -2.997011
 O         1.001962         0.976501        -1.689909
 C         2.283704         0.733608        -1.016260
 C         3.171182        -0.118269        -1.853302
 C         1.999449         0.281724         0.344243
 O         2.879396         0.321840         1.262887
 H         3.686910        -2.017099        -3.750762
 H         2.176235        -2.455737        -2.886351
 H         2.194700        -2.028919        -4.581823
 H         2.834737         1.805993        -3.874295
 H         2.040621         0.781365        -5.109781
 H         0.089155         0.058554        -3.256842
 H         2.619933         1.761011        -0.841869
 H         4.160704         0.228448        -1.931918
 H         3.290652        -1.036963        -1.239829
 H         0.980584        -0.132267         0.556887
