19
Iteration:  2944
 C         2.651765        -1.641294        -4.062673
 C         2.484798        -0.474762        -3.080876
 C         2.318255         0.914353        -3.726659
 C         1.079874         0.262196        -2.951523
 O         0.924097         0.770723        -1.599207
 C         2.220525         0.804270        -1.124474
 C         3.033250        -0.255614        -1.746669
 C         2.020011         0.458740         0.403979
 O         2.987062         0.475341         1.217913
 H         3.550179        -2.168195        -3.995035
 H         1.909694        -2.397746        -3.853672
 H         2.593152        -1.114974        -4.983478
 H         2.871308         1.812583        -3.363996
 H         1.933913         0.970376        -4.775432
 H         0.188548        -0.194055        -3.418372
 H         2.590709         1.811240        -1.075242
 H         4.053222         0.093951        -1.642129
 H         2.825949        -1.165900        -1.227406
 H         0.833871         0.336096         0.565487
