19
Iteration:  2213charge 0 multiplicity 1
 C         2.504980        -1.815687        -3.760795
 C         2.500483        -0.469123        -3.071051
 C         2.116071         0.757248        -3.863136
 C         1.105608         0.311626        -2.886595
 O         1.128917         1.187650        -1.768773
 C         2.268864         0.916734        -1.010800
 C         3.353350         0.019700        -1.882726
 C         2.076885         0.109511         0.280279
 O         2.665030         0.332253         1.296923
 H         3.514187        -1.992316        -4.217281
 H         2.103981        -2.666399        -3.115839
 H         1.796658        -1.850699        -4.574386
 H         2.405914         1.720945        -3.592930
 H         1.754893         0.601463        -4.867045
 H         0.196524        -0.263480        -3.080080
 H         2.736764         1.845162        -0.696585
 H         4.280274         0.556165        -1.992181
 H         3.712630        -0.811927        -1.184842
 H         1.305995        -0.667672        -0.131616
