19
Iteration:  3174
 C         2.557888        -1.719666        -3.693649
 C         2.469887        -0.325649        -3.042076
 C         2.089050         0.727235        -3.992698
 C         1.140702         0.145735        -2.879789
 O         1.038532         0.955057        -1.749116
 C         2.233399         1.132664        -0.997632
 C         3.334935         0.185398        -1.771476
 C         2.004875         0.522066         0.421359
 O         2.854105        -0.169662         1.054249
 H         3.511289        -2.193893        -3.730315
 H         2.081797        -2.510028        -3.073513
 H         2.048874        -1.672287        -4.631179
 H         2.319980         1.748911        -3.911472
 H         1.965001         0.336846        -5.072859
 H         0.298689        -0.581642        -3.032692
 H         2.549059         2.159704        -0.878901
 H         4.078905         0.808833        -2.064254
 H         3.557195        -0.651425        -1.214609
 H         0.968514         0.702342         0.850725
