19
Iteration:   620
 C         2.689762        -1.739491        -3.823430
 C         2.434033        -0.454824        -3.111544
 C         2.335098         0.856671        -3.922331
 C         1.150269         0.469248        -3.051108
 O         1.024419         1.081808        -1.771051
 C         2.136939         0.799997        -1.023104
 C         2.997286        -0.314761        -1.658930
 C         1.963061         0.356580         0.484752
 O         2.933724         0.317836         1.176517
 H         2.580951        -2.591207        -3.099594
 H         1.951474        -1.922529        -4.666554
 H         3.679747        -1.799676        -4.059971
 H         2.904529         1.766725        -3.499360
 H         2.162040         0.838428        -5.002855
 H         0.180969         0.204800        -3.433550
 H         2.643063         1.753130        -0.861518
 H         4.081273        -0.247110        -1.462380
 H         2.729234        -1.381835        -1.200156
 H         0.907258         0.050549         0.718495
