19
Iteration:  2229
 C         2.498543        -1.790753        -3.708045
 C         2.449540        -0.384077        -3.098084
 C         2.068887         0.786880        -4.033980
 C         1.154483         0.241741        -2.907256
 O         1.141215         1.122584        -1.778497
 C         2.351532         0.921558        -0.968251
 C         3.267223         0.021920        -1.843360
 C         2.039969         0.149716         0.333155
 O         2.685349         0.286695         1.359729
 H         3.442154        -2.121444        -4.143660
 H         2.203587        -2.529367        -2.989701
 H         1.886944        -1.859558        -4.657457
 H         2.698338         1.765515        -3.732358
 H         2.185561         0.714877        -5.144089
 H         0.169061        -0.187361        -3.168373
 H         2.712167         1.962892        -0.743887
 H         4.110335         0.614572        -2.350858
 H         3.690583        -0.864067        -1.413468
 H         1.336036        -0.662750         0.417818
