19
Iteration:   484
 C         2.770307        -1.694074        -3.858355
 C         2.455386        -0.434711        -3.043610
 C         2.362072         0.856324        -3.762895
 C         1.119078         0.337013        -3.055579
 O         0.907323         0.971157        -1.699464
 C         2.195050         0.832824        -1.075470
 C         2.927404        -0.389136        -1.635954
 C         2.075228         0.725472         0.419581
 O         2.880648         0.148849         1.038729
 H         2.520899        -2.658083        -3.356502
 H         2.248621        -1.551972        -4.791761
 H         3.793521        -1.887498        -4.071728
 H         2.446078         1.794903        -3.219054
 H         2.514922         0.818724        -4.804013
 H         0.059317         0.093621        -3.447218
 H         2.702009         1.780179        -1.098899
 H         4.073504        -0.245916        -1.607937
 H         2.659224        -1.403039        -1.169212
 H         1.143362         1.267470         0.936556
