19
Iteration:  2363charge 0 multiplicity 1
 C         2.676185        -1.768302        -3.653138
 C         2.427390        -0.357672        -3.153794
 C         2.166632         0.939247        -3.975277
 C         1.096229         0.310970        -3.041329
 O         0.985495         0.961793        -1.759603
 C         2.236348         0.778225        -1.124360
 C         3.106738        -0.181350        -1.803839
 C         2.050615         0.505579         0.490834
 O         2.894785         0.183601         1.323508
 H         3.769520        -1.933795        -3.986678
 H         2.631750        -2.443796        -2.870560
 H         2.017922        -1.939913        -4.480764
 H         2.889360         1.665697        -3.586396
 H         2.008890         0.899639        -5.059060
 H         0.155942        -0.112345        -3.382359
 H         2.816084         1.731392        -1.098439
 H         4.057426         0.240689        -1.970418
 H         3.078214        -1.235879        -1.528647
 H         0.991629         0.817282         0.730397
