19
Iteration:  4778
 C         2.494861        -1.746144        -3.880362
 C         2.388332        -0.410778        -3.136619
 C         2.197707         0.804603        -4.011030
 C         1.166808         0.428228        -2.925175
 O         1.186959         1.058891        -1.658002
 C         2.438921         0.672539        -0.937450
 C         3.190043        -0.293369        -1.932092
 C         1.908173         0.226456         0.429960
 O         2.685787         0.580707         1.377967
 H         3.494737        -1.797534        -4.453710
 H         2.242125        -2.602025        -3.250475
 H         1.779063        -1.551439        -4.752522
 H         2.778171         1.653420        -3.737061
 H         2.097125         0.590619        -5.033099
 H         0.252494         0.034459        -3.312844
 H         2.998168         1.556092        -0.794643
 H         4.155008         0.152717        -2.160745
 H         3.356816        -1.216062        -1.324026
 H         1.088174        -0.479721         0.680295
