19
Iteration:  4818charge 0 multiplicity 1
 C         2.445346        -1.743463        -3.947761
 C         2.467031        -0.464835        -3.125763
 C         2.172378         0.852572        -3.970797
 C         1.188557         0.325421        -2.983057
 O         1.171363         1.059752        -1.677527
 C         2.457460         0.818060        -0.987714
 C         3.167838        -0.286417        -1.821727
 C         1.995055         0.288902         0.371798
 O         2.646402         0.527230         1.450266
 H         3.319041        -1.884786        -4.616716
 H         2.363947        -2.577821        -3.196585
 H         1.542461        -1.804076        -4.558941
 H         2.556372         1.816895        -3.559617
 H         1.996300         0.822234        -5.045094
 H         0.245375        -0.098271        -3.051271
 H         3.160349         1.721541        -0.811556
 H         4.306360        -0.228047        -1.936496
 H         3.068327        -1.324337        -1.561661
 H         1.259404        -0.562989         0.222348
