19
Iteration:  2211
 C         2.497129        -1.812091        -3.747479
 C         2.502484        -0.466552        -3.065731
 C         2.117789         0.755680        -3.844900
 C         1.109424         0.322204        -2.877472
 O         1.122075         1.191285        -1.760473
 C         2.291942         0.903443        -1.019534
 C         3.349654         0.024614        -1.861901
 C         2.067837         0.106275         0.248013
 O         2.663609         0.336977         1.294366
 H         3.525278        -1.983083        -4.283305
 H         2.161052        -2.663035        -3.144884
 H         1.836179        -1.874428        -4.648079
 H         2.393332         1.696965        -3.712801
 H         1.707669         0.588573        -4.843205
 H         0.213700        -0.296647        -3.148078
 H         2.670381         1.876718        -0.714982
 H         4.279388         0.497214        -2.088346
 H         3.709573        -0.855847        -1.193093
 H         1.323051        -0.690333        -0.074871
