19
Iteration:  2935
 C         2.639160        -1.633496        -4.008791
 C         2.435844        -0.393757        -3.163864
 C         2.293268         0.941846        -3.695726
 C         1.118247         0.224840        -3.040370
 O         0.907809         0.736695        -1.633730
 C         2.216163         0.774692        -1.067830
 C         3.062053        -0.300590        -1.735957
 C         2.064269         0.467063         0.457712
 O         2.957551         0.516181         1.204807
 H         3.617861        -2.138258        -3.904233
 H         1.826888        -2.284211        -3.840173
 H         2.451738        -1.424893        -5.057886
 H         2.702136         1.831829        -3.156778
 H         2.214182         1.104143        -4.738617
 H         0.170804        -0.008857        -3.495683
 H         2.762948         1.715089        -1.186416
 H         4.184270        -0.155139        -1.759538
 H         2.879925        -1.219557        -1.264327
 H         1.022170         0.303669         0.984430
