19
Iteration:   332
 C         2.574929        -1.727594        -3.947511
 C         2.390749        -0.421346        -3.257284
 C         2.182821         0.937634        -3.893412
 C         1.170583         0.421669        -2.902747
 O         1.211851         1.047222        -1.650084
 C         2.471023         0.618765        -0.986943
 C         3.130416        -0.413237        -1.957426
 C         2.153119         0.108168         0.469247
 O         2.423371         0.787003         1.403089
 H         2.378861        -2.572382        -3.216238
 H         1.846214        -1.986960        -4.721705
 H         3.531504        -1.715724        -4.326182
 H         2.807506         1.763785        -3.596431
 H         1.942268         0.841185        -4.945730
 H         0.168152         0.115926        -3.045067
 H         3.097156         1.539459        -0.776752
 H         4.225818        -0.481213        -2.132774
 H         2.868160        -1.389718        -1.562672
 H         1.705243        -0.986720         0.652964
