19
Iteration:  4180
 C         2.419341        -1.712556        -3.865705
 C         2.422011        -0.391470        -3.152566
 C         2.341197         1.014820        -3.850505
 C         1.180281         0.419676        -3.039767
 O         1.028547         0.776161        -1.687923
 C         2.237981         0.698591        -0.963245
 C         3.100844        -0.363614        -1.897371
 C         2.102920         0.246003         0.482981
 O         2.831880         0.668641         1.311887
 H         3.433206        -2.081865        -3.949590
 H         1.833165        -2.509696        -3.301864
 H         2.084191        -1.434341        -4.933676
 H         2.886994         1.742920        -3.342563
 H         2.255096         1.075924        -4.940959
 H         0.337322         0.109588        -3.567715
 H         2.790155         1.649590        -1.070813
 H         4.098086         0.011274        -1.983854
 H         3.159962        -1.382238        -1.416189
 H         1.324155        -0.488262         0.622090
