19
Iteration:  2816charge 0 multiplicity 1
 C         2.598202        -1.661514        -4.072834
 C         2.462782        -0.317934        -3.223253
 C         2.122804         0.945803        -3.891447
 C         1.133556         0.450202        -3.007533
 O         1.118817         0.753030        -1.611629
 C         2.368937         0.609293        -1.012029
 C         3.112833        -0.462765        -1.781869
 C         2.076877         0.273828         0.496338
 O         2.721987         0.800977         1.439604
 H         3.661146        -1.792431        -4.497578
 H         2.231686        -2.474631        -3.465838
 H         1.799855        -1.706770        -4.829672
 H         2.713776         1.796865        -3.781009
 H         1.891391         0.743599        -4.974367
 H         0.142973         0.047716        -3.289245
 H         2.878121         1.615608        -1.193450
 H         4.279734        -0.373070        -1.863563
 H         2.922667        -1.514569        -1.412377
 H         1.141455        -0.494689         0.643726
