19
Iteration:  1530charge 0 multiplicity 1
 C         2.603770        -1.815379        -3.700867
 C         2.312224        -0.388989        -3.075560
 C         2.036641         0.882594        -3.914549
 C         1.086868         0.424208        -2.879189
 O         1.197740         1.063301        -1.586112
 C         2.439879         0.738570        -1.047920
 C         3.249119        -0.074113        -2.020994
 C         2.321794        -0.002493         0.262682
 O         2.398374         0.513749         1.295554
 H         3.727763        -1.921730        -3.940518
 H         2.424745        -2.541852        -2.966906
 H         2.052963        -2.047430        -4.563212
 H         2.684043         1.870699        -3.878075
 H         1.889311         0.732015        -5.021147
 H         0.063269         0.126435        -3.298766
 H         3.031280         1.671917        -0.825831
 H         4.169706         0.525026        -2.389763
 H         3.600261        -1.019450        -1.540386
 H         1.826497        -1.049693         0.257728
