19
Iteration:  2400charge 0 multiplicity 1
 C         2.647229        -1.766510        -3.892136
 C         2.470337        -0.402127        -3.121707
 C         2.226818         0.886008        -3.896012
 C         1.141824         0.333654        -2.921261
 O         0.978391         0.775256        -1.586977
 C         2.282704         0.831758        -1.061019
 C         3.117686        -0.179227        -1.752784
 C         2.050735         0.747176         0.403015
 O         2.785873         0.179253         1.183785
 H         3.705507        -1.962407        -4.171737
 H         2.031586        -2.693107        -3.540008
 H         2.087449        -1.700508        -4.864019
 H         2.983700         1.608608        -3.691724
 H         1.887675         0.849614        -4.944688
 H         0.274088        -0.119475        -3.438335
 H         2.655714         1.799919        -1.429890
 H         4.201547         0.151874        -1.717019
 H         3.232588        -1.092857        -1.056500
 H         1.086971         1.207699         0.872306
