19
Iteration:   655
 C         2.616021        -1.767562        -3.650856
 C         2.411256        -0.367358        -3.064436
 C         2.455407         0.919860        -3.812412
 C         1.184920         0.513495        -3.160475
 O         0.908960         0.966158        -1.797113
 C         2.045569         0.821751        -1.036238
 C         2.986416        -0.320165        -1.632545
 C         2.056963         0.329117         0.391298
 O         3.009819         0.304417         1.084459
 H         2.078328        -2.518800        -3.099279
 H         2.314408        -1.836543        -4.652719
 H         3.683329        -1.933537        -3.810103
 H         2.965095         1.774475        -3.407852
 H         2.338017         1.032586        -4.910621
 H         0.122413         0.284531        -3.571754
 H         2.624990         1.721131        -1.141198
 H         4.047265        -0.219531        -1.446682
 H         2.513687        -1.246212        -1.116911
 H         1.160817        -0.193633         0.795997
