19
Iteration:  4410charge 0 multiplicity 1
 C         2.430260        -1.736796        -3.975981
 C         2.352105        -0.406225        -3.150238
 C         2.353993         0.801336        -3.969335
 C         1.207972         0.414892        -3.001133
 O         1.047142         0.950048        -1.689382
 C         2.308901         0.826313        -0.986828
 C         3.119088        -0.262261        -1.783102
 C         2.115124         0.250882         0.426748
 O         2.773943         0.540350         1.423148
 H         3.455440        -1.916116        -4.295753
 H         2.137297        -2.645614        -3.348197
 H         1.798293        -1.627467        -4.931513
 H         2.753379         1.705833        -3.731958
 H         2.145085         0.610739        -5.004371
 H         0.166237        -0.010271        -3.165042
 H         2.829543         1.750654        -0.868287
 H         4.085652         0.217164        -1.807712
 H         3.095703        -1.226049        -1.126270
 H         1.372742        -0.612007         0.482464
