19
Iteration:  2246charge 0 multiplicity 1
 C         2.524823        -1.746841        -3.635411
 C         2.442106        -0.327540        -3.121484
 C         2.105568         0.769265        -4.097532
 C         1.147051         0.394749        -3.009474
 O         1.116401         1.014462        -1.722786
 C         2.334394         0.832268        -0.984050
 C         3.322646        -0.013472        -1.940112
 C         2.038991         0.172820         0.340979
 O         2.703999         0.280259         1.406739
 H         3.593761        -1.987863        -3.831460
 H         2.292767        -2.446501        -2.752678
 H         1.867792        -1.822822        -4.478814
 H         2.492263         1.776806        -4.143815
 H         1.606942         0.458725        -4.979134
 H         0.177073        -0.060159        -3.115203
 H         2.887179         1.754151        -0.809119
 H         4.165081         0.642020        -1.980303
 H         3.458329        -0.924120        -1.311772
 H         0.973785        -0.338411         0.482321
