19
Iteration:  3527charge 0 multiplicity 1
 C         2.763768        -1.755672        -3.749927
 C         2.354935        -0.424623        -3.122563
 C         2.220473         0.900923        -3.909004
 C         1.057098         0.311546        -2.942284
 O         0.987126         0.972495        -1.705228
 C         2.213702         0.811201        -1.014745
 C         3.142008        -0.143400        -1.898367
 C         2.035447         0.421818         0.444722
 O         2.891211         0.259880         1.233733
 H         3.763563        -1.692233        -4.174112
 H         2.576720        -2.590426        -3.056735
 H         2.083624        -1.920328        -4.659072
 H         2.743321         1.898869        -3.553745
 H         1.956389         0.979210        -4.930263
 H         0.076829        -0.204484        -3.045885
 H         2.554213         1.865270        -1.032885
 H         4.075423         0.334382        -2.239436
 H         3.298751        -1.095701        -1.400851
 H         0.993499        -0.016213         0.602881
