19
Iteration:   633
 C         2.686923        -1.765615        -3.703623
 C         2.408767        -0.354752        -3.081548
 C         2.417474         0.906132        -3.866059
 C         1.197424         0.404291        -3.046031
 O         0.966337         1.084334        -1.791020
 C         2.155744         0.800479        -0.922080
 C         2.874804        -0.337529        -1.742674
 C         1.934766         0.316107         0.463355
 O         2.979599         0.329601         1.077899
 H         2.383398        -2.586907        -3.116958
 H         2.186140        -1.912819        -4.623087
 H         3.711009        -1.711068        -4.124705
 H         2.975433         1.838627        -3.705850
 H         2.313921         0.683554        -4.941803
 H         0.226491         0.099953        -3.622538
 H         2.902246         1.575134        -0.870486
 H         3.909329        -0.072164        -1.798555
 H         2.693045        -1.330751        -1.201041
 H         1.077287        -0.087819         0.852889
