19
Iteration:  4027
 C         2.530131        -1.732592        -3.933474
 C         2.445198        -0.404311        -3.175534
 C         2.314023         0.900505        -3.769124
 C         1.159643         0.324314        -2.975017
 O         0.977488         0.851644        -1.707185
 C         2.210742         0.730797        -0.953990
 C         3.131812        -0.272494        -1.788104
 C         1.983903         0.582118         0.508248
 O         2.930162         0.355743         1.168362
 H         3.533707        -2.081857        -3.900993
 H         1.834329        -2.453751        -3.396608
 H         2.059645        -1.693254        -4.973417
 H         2.856715         1.756277        -3.381451
 H         2.206217         1.160930        -4.809286
 H         0.205354         0.045528        -3.545197
 H         2.630650         1.714793        -1.150336
 H         4.067056         0.248061        -1.961408
 H         3.445690        -1.320188        -1.415673
 H         0.960393         0.500486         0.859781
