19
Iteration:  1974charge 0 multiplicity 1
 C         2.583451        -1.761986        -3.801016
 C         2.508503        -0.375608        -3.173159
 C         2.079790         0.814594        -3.973952
 C         1.139879         0.454811        -2.962065
 O         1.075682         0.898046        -1.552896
 C         2.387573         0.865374        -1.022454
 C         3.214129        -0.165132        -1.863868
 C         2.118267         0.223995         0.245479
 O         2.640709         0.461737         1.369154
 H         3.551784        -2.029223        -4.139134
 H         2.360684        -2.570855        -2.996161
 H         1.959418        -1.699832        -4.633060
 H         2.627185         1.848075        -3.987425
 H         1.639954         0.656982        -4.925531
 H         0.072619         0.099204        -3.110564
 H         2.845263         1.795008        -1.107555
 H         4.299487        -0.041111        -1.765826
 H         2.989745        -1.062442        -1.289749
 H         1.437379        -0.676434         0.173604
