19
Iteration:  3993
 C         2.579946        -1.715811        -3.861481
 C         2.401395        -0.408733        -3.146717
 C         2.292594         0.788504        -3.957372
 C         1.076317         0.428812        -3.014954
 O         0.951790         0.876479        -1.721311
 C         2.300807         0.926532        -0.949040
 C         3.067305        -0.211610        -1.741900
 C         2.038035         0.491175         0.454023
 O         2.962508         0.256472         1.284909
 H         3.602103        -2.096685        -3.770410
 H         1.945283        -2.567503        -3.486807
 H         2.473225        -1.594410        -4.975695
 H         2.763327         1.751115        -3.576706
 H         1.987412         0.654697        -4.926569
 H         0.147584         0.101023        -3.509230
 H         2.718640         1.925963        -1.088028
 H         4.077001         0.176983        -1.703819
 H         3.102517        -1.216242        -1.209807
 H         1.104199        -0.108432         0.501084
