19
Iteration:    68
 C         2.702197        -1.739382        -3.944009
 C         2.514876        -0.403899        -3.119841
 C         2.310760         0.950294        -3.879455
 C         1.195520         0.355404        -3.111529
 O         0.842070         0.892545        -1.767395
 C         2.108828         0.776554        -0.914149
 C         3.010078        -0.338707        -1.611819
 C         1.985865         0.440417         0.551143
 O         3.030454         0.416324         1.148072
 H         2.262307        -2.469711        -3.378350
 H         2.270286        -1.707847        -4.968715
 H         3.716326        -2.098060        -4.036908
 H         2.657613         1.937533        -3.621378
 H         2.123562         0.870760        -4.974202
 H         0.244754         0.021140        -3.529073
 H         2.572089         1.776798        -0.943775
 H         4.063817        -0.001116        -1.586144
 H         2.890864        -1.332613        -1.136771
 H         0.928063         0.313776         1.095277
