19
Iteration:   564
 C         2.504865        -1.761303        -4.031701
 C         2.525492        -0.436432        -3.151892
 C         2.173284         0.987540        -3.860898
 C         1.177517         0.341168        -2.999479
 O         1.106284         0.807000        -1.656040
 C         2.474608         0.685872        -0.998218
 C         3.297807        -0.336235        -1.761101
 C         1.962428         0.698860         0.437795
 O         2.566713         0.355145         1.398609
 H         2.040787        -2.614309        -3.486972
 H         1.718719        -1.630390        -4.876483
 H         3.307055        -1.963437        -4.573135
 H         2.705089         1.971096        -3.719216
 H         1.869675         0.894143        -4.937032
 H         0.281780        -0.038049        -3.397761
 H         2.915221         1.679140        -0.972988
 H         4.324647         0.113209        -1.934346
 H         3.333842        -1.429385        -1.290323
 H         0.969691         1.003838         0.365634
