19
Iteration:  1262charge 0 multiplicity 1
 C         2.669105        -1.623368        -4.167778
 C         2.354578        -0.544191        -3.125637
 C         2.204926         0.977089        -3.856183
 C         1.106414         0.355020        -2.923610
 O         1.060019         0.884685        -1.663853
 C         2.317725         0.578184        -0.989508
 C         3.036246        -0.569967        -1.812879
 C         2.017823         0.573011         0.537597
 O         2.864930         0.658469         1.363819
 H         3.438819        -1.205954        -4.690590
 H         2.915518        -2.587792        -3.664231
 H         1.866778        -1.758641        -5.010984
 H         2.795818         1.809904        -3.356698
 H         2.232008         0.928282        -4.885857
 H         0.099318        -0.141792        -3.348585
 H         3.064505         1.493655        -1.023700
 H         4.106540        -0.450204        -1.828226
 H         2.860271        -1.499980        -1.366615
 H         0.963459         0.518367         0.701451
