19
Iteration:  4930
 C         2.448170        -1.758989        -3.901866
 C         2.492670        -0.405825        -3.222801
 C         2.258684         0.880528        -3.906844
 C         1.211197         0.425307        -2.993542
 O         1.017507         0.851958        -1.668466
 C         2.324485         0.904321        -1.015157
 C         3.131612        -0.344838        -1.829680
 C         2.121353         0.363798         0.362878
 O         2.759383         0.481574         1.466352
 H         3.497563        -2.207715        -4.080000
 H         1.889880        -2.446268        -3.291105
 H         1.828608        -1.738810        -4.887133
 H         2.753385         1.725180        -3.570308
 H         2.053519         0.952846        -4.963595
 H         0.136905         0.210064        -3.392883
 H         2.861213         1.869253        -1.383003
 H         4.229100        -0.292120        -1.694383
 H         2.870262        -1.243770        -1.199558
 H         1.220166        -0.190936         0.447634
