19
Iteration:  4676charge 0 multiplicity 1
 C         2.452455        -1.763514        -3.883595
 C         2.423126        -0.420500        -3.194256
 C         2.293834         0.871222        -3.984425
 C         1.150744         0.438418        -3.071783
 O         1.111522         0.918310        -1.695559
 C         2.311919         0.737164        -0.994682
 C         3.097067        -0.302695        -1.868787
 C         2.035516         0.326492         0.523174
 O         2.768647         0.539739         1.485664
 H         3.497903        -1.894709        -4.307871
 H         2.077310        -2.665871        -3.251664
 H         1.723754        -1.592032        -4.682441
 H         3.007163         1.601487        -3.599289
 H         2.046095         0.905130        -5.111375
 H         0.228054         0.117242        -3.614707
 H         2.990353         1.618858        -1.023226
 H         4.077094         0.293951        -2.083353
 H         3.525316        -1.173147        -1.340005
 H         1.191562        -0.432022         0.733945
