19
Iteration:  3750charge 0 multiplicity 1
 C         2.527021        -1.666370        -3.975381
 C         2.444643        -0.315066        -3.229693
 C         2.214910         1.025794        -3.914115
 C         1.187665         0.384355        -3.005214
 O         1.058077         0.673681        -1.624517
 C         2.426317         0.652745        -1.003116
 C         3.104465        -0.419273        -1.891312
 C         2.109112         0.286652         0.444119
 O         2.680859         0.765605         1.462292
 H         3.482332        -2.214220        -4.330446
 H         2.207275        -2.384130        -3.169761
 H         1.722579        -1.680867        -4.662328
 H         2.644601         1.966751        -3.475534
 H         2.021909         1.176861        -4.936638
 H         0.235127         0.040091        -3.510405
 H         2.939243         1.630547        -1.066520
 H         4.222223        -0.405240        -2.091968
 H         2.915422        -1.379840        -1.376280
 H         1.242973        -0.415021         0.779062
