19
Iteration:  1435
 C         2.657400        -1.788521        -3.810111
 C         2.389611        -0.458008        -3.189075
 C         2.032946         0.868521        -3.894690
 C         1.111841         0.357217        -2.940735
 O         1.150491         1.076410        -1.735294
 C         2.309098         0.764611        -0.966461
 C         3.300125        -0.124759        -1.887951
 C         1.947220         0.326649         0.454324
 O         2.752540         0.326882         1.298569
 H         3.668084        -1.728329        -4.262390
 H         2.767838        -2.493316        -2.953175
 H         1.807534        -2.150511        -4.514931
 H         2.631556         1.687855        -3.899327
 H         1.741237         0.824692        -4.929852
 H         0.099086         0.013325        -3.203586
 H         2.879860         1.717137        -0.809461
 H         4.240372         0.371267        -2.088152
 H         3.495806        -1.188106        -1.503195
 H         0.865985        -0.110466         0.628860
