19
Iteration:   498charge 0 multiplicity 1
 C         2.722002        -1.693058        -3.920338
 C         2.443273        -0.452267        -3.100066
 C         2.297679         0.930488        -3.792645
 C         1.157914         0.348682        -2.957028
 O         0.967382         0.867338        -1.708676
 C         2.247714         0.774670        -1.017268
 C         3.028422        -0.385629        -1.682711
 C         2.008474         0.812190         0.430221
 O         2.804859         0.175714         1.115233
 H         2.290100        -2.596887        -3.407832
 H         2.183959        -1.662160        -4.926745
 H         3.757712        -1.779181        -4.040428
 H         3.020215         1.657868        -3.469528
 H         2.031578         0.917490        -4.884448
 H         0.256118         0.023292        -3.497150
 H         2.861836         1.613413        -1.311618
 H         4.143324        -0.278901        -1.577582
 H         2.767784        -1.356407        -1.092634
 H         1.087152         1.483526         0.838403
