19
Iteration:  1929charge 0 multiplicity 1
 C         2.651744        -1.735738        -3.990219
 C         2.402132        -0.400804        -3.148367
 C         2.172960         0.845330        -3.839321
 C         1.047165         0.321322        -3.010617
 O         1.055174         1.016269        -1.790256
 C         2.249800         0.727910        -1.022312
 C         3.112380        -0.254325        -1.772960
 C         2.108073         0.203303         0.540145
 O         2.826217         0.572783         1.362448
 H         3.678927        -1.923439        -4.306316
 H         2.404655        -2.583923        -3.260105
 H         1.969131        -1.723508        -4.865471
 H         2.695626         1.811629        -3.488755
 H         2.177277         0.925861        -4.913305
 H         0.103469         0.127586        -3.560780
 H         2.844048         1.621083        -0.934093
 H         4.067136         0.241672        -1.913261
 H         3.328865        -1.189325        -1.225779
 H         1.319205        -0.468198         0.897806
