19
Iteration:  4462charge 0 multiplicity 1
 C         2.629273        -1.756988        -3.893968
 C         2.378099        -0.416984        -3.186070
 C         2.155480         0.983739        -3.865418
 C         1.149600         0.364806        -2.976859
 O         1.096790         0.975186        -1.686151
 C         2.364049         0.714764        -1.027650
 C         3.087986        -0.459703        -1.819007
 C         1.996366         0.452118         0.481934
 O         2.819775         0.493466         1.278425
 H         3.625847        -1.694177        -4.375193
 H         2.642776        -2.687918        -3.328337
 H         1.830718        -1.812101        -4.679032
 H         2.912186         1.578338        -3.335923
 H         1.990272         0.965326        -4.959015
 H         0.077674         0.132491        -3.384655
 H         3.052374         1.613508        -0.883854
 H         4.140552        -0.438583        -1.698584
 H         2.690554        -1.359628        -1.348482
 H         0.869252         0.370944         0.621240
