19
Iteration:  4106charge 0 multiplicity 1
 C         2.679067        -1.657867        -4.062760
 C         2.394535        -0.548898        -3.095812
 C         2.279900         0.873429        -3.739132
 C         1.078535         0.416643        -3.010928
 O         0.985527         0.998097        -1.718992
 C         2.238013         0.621935        -0.999527
 C         3.072900        -0.515942        -1.798346
 C         1.958414         0.558156         0.549600
 O         2.968457         0.512641         1.254617
 H         3.548708        -1.492516        -4.643746
 H         2.651679        -2.670489        -3.622238
 H         1.968840        -1.387245        -4.873244
 H         2.681008         1.812764        -3.399788
 H         2.130401         0.903468        -4.816841
 H         0.183224         0.036181        -3.353771
 H         2.710847         1.573014        -1.149784
 H         4.052555        -0.008965        -1.894727
 H         3.065528        -1.439715        -1.223554
 H         0.954352         0.273942         0.954408
