19
Iteration:   502
 C         2.662470        -1.694501        -3.936359
 C         2.456135        -0.433328        -3.124788
 C         2.276301         0.949167        -3.811424
 C         1.174519         0.350477        -2.964939
 O         0.991925         0.835418        -1.688395
 C         2.231702         0.805149        -1.046817
 C         3.041246        -0.424982        -1.682255
 C         2.027622         0.792048         0.444479
 O         2.768262         0.197928         1.156359
 H         2.414714        -2.629483        -3.430245
 H         2.202716        -1.634188        -4.919500
 H         3.884545        -1.794876        -3.937956
 H         3.084823         1.637086        -3.461433
 H         1.983864         0.818609        -4.865927
 H         0.352912         0.033424        -3.535681
 H         2.879762         1.730820        -1.315199
 H         4.077800        -0.253960        -1.606635
 H         2.903848        -1.273038        -1.078203
 H         1.228946         1.435041         0.786793
