19
Iteration:  1901charge 0 multiplicity 1
 C         2.514634        -1.650250        -4.036238
 C         2.463220        -0.393027        -3.093654
 C         2.295058         0.834814        -3.900250
 C         1.195577         0.334025        -2.957823
 O         0.963792         0.741083        -1.591866
 C         2.277264         0.840612        -1.016203
 C         3.133786        -0.296786        -1.749309
 C         1.975141         0.399138         0.388193
 O         2.858649         0.559280         1.291023
 H         3.596144        -1.831772        -4.295522
 H         2.260125        -2.642173        -3.653393
 H         1.990680        -1.238408        -4.869475
 H         2.920681         1.675031        -3.485478
 H         2.013747         0.897130        -4.926541
 H         0.313156        -0.094383        -3.520568
 H         2.856178         1.816009        -1.208975
 H         4.218861        -0.020036        -1.707649
 H         2.941647        -1.248176        -1.233660
 H         1.097028        -0.199334         0.765222
