19
Iteration:  4183charge 0 multiplicity 1
 C         2.426335        -1.717419        -3.877207
 C         2.401278        -0.408861        -3.140892
 C         2.321987         1.013626        -3.837399
 C         1.178366         0.436575        -3.069218
 O         1.039161         0.787655        -1.691810
 C         2.237897         0.690612        -0.929617
 C         3.144388        -0.368988        -1.911273
 C         2.082511         0.221898         0.460884
 O         2.838545         0.689852         1.310621
 H         3.406581        -2.123628        -3.920973
 H         1.822229        -2.513519        -3.398899
 H         2.017899        -1.462835        -4.876116
 H         2.933785         1.787271        -3.302865
 H         2.279453         0.947186        -4.854825
 H         0.232941         0.207098        -3.563725
 H         2.646924         1.723639        -0.938914
 H         4.203249        -0.025211        -1.991246
 H         3.269407        -1.308148        -1.394253
 H         1.256354        -0.533719         0.659483
