19
Iteration:  4396
 C         2.421535        -1.788575        -3.924853
 C         2.479634        -0.489188        -3.179704
 C         2.300075         0.894998        -3.964418
 C         1.138708         0.405582        -3.029933
 O         1.041503         0.978720        -1.639479
 C         2.273793         0.761490        -0.928759
 C         3.146211        -0.213882        -1.834066
 C         2.084255         0.182804         0.419676
 O         2.778997         0.597442         1.440913
 H         3.438632        -2.224428        -4.237591
 H         1.922346        -2.586257        -3.363395
 H         1.767013        -1.635893        -4.800592
 H         3.153702         1.637788        -3.682599
 H         2.081720         0.800669        -5.034009
 H         0.256867         0.431814        -3.704649
 H         2.817095         1.745102        -0.935219
 H         4.117997         0.145090        -2.137871
 H         3.491938        -1.180136        -1.425061
 H         1.316490        -0.640618         0.476305
