19
Iteration:  1247
 C         2.684477        -1.664372        -4.164059
 C         2.323977        -0.443589        -3.238326
 C         2.223904         0.927357        -3.809992
 C         1.132303         0.383896        -3.045383
 O         1.042698         0.785380        -1.604873
 C         2.339235         0.694542        -1.007012
 C         2.960704        -0.526162        -1.727490
 C         2.108918         0.481800         0.519439
 O         2.864584         0.679334         1.392825
 H         3.695775        -1.514421        -4.676200
 H         2.838516        -2.578869        -3.610817
 H         1.865405        -1.951092        -4.795174
 H         2.827469         1.726110        -3.506427
 H         1.992177         1.036107        -4.934348
 H         0.133450         0.388924        -3.364718
 H         2.942031         1.572550        -1.152952
 H         4.075447        -0.375920        -1.795301
 H         2.505011        -1.468818        -1.172233
 H         0.953371         0.233118         0.744103
