19
Iteration:  2493charge 0 multiplicity 1
 C         2.784082        -1.690423        -3.852942
 C         2.322769        -0.512718        -3.165041
 C         2.168095         0.907744        -3.903865
 C         1.085651         0.337074        -3.008668
 O         1.031279         0.844577        -1.682716
 C         2.286293         0.805492        -1.107518
 C         3.046358        -0.303305        -1.805194
 C         2.062849         0.733206         0.484115
 O         2.846119         0.184670         1.308375
 H         3.853553        -1.390999        -4.206661
 H         2.859815        -2.586222        -3.245002
 H         2.039904        -2.016557        -4.598293
 H         2.824608         1.887059        -3.634024
 H         1.805465         0.746500        -4.907395
 H         0.035029         0.273563        -3.251013
 H         2.780962         1.817237        -1.083729
 H         4.106977        -0.150144        -1.859364
 H         2.921754        -1.156844        -1.145321
 H         1.282560         1.508788         0.887899
