19
Iteration:  1266charge 0 multiplicity 1
 C         2.638712        -1.608316        -4.157354
 C         2.386547        -0.484868        -3.114395
 C         2.182142         0.925998        -3.806334
 C         1.121690         0.318800        -2.932622
 O         1.058114         0.906207        -1.683692
 C         2.309546         0.558092        -0.992945
 C         3.065487        -0.594278        -1.825735
 C         2.009999         0.603270         0.542773
 O         2.855893         0.644423         1.345011
 H         3.558258        -1.097293        -4.693120
 H         2.896814        -2.621853        -3.765064
 H         1.846705        -1.688676        -4.858650
 H         2.725297         1.790250        -3.386571
 H         2.226622         0.922640        -4.936835
 H         0.184893        -0.030018        -3.260509
 H         3.141806         1.322694        -1.055268
 H         4.132992        -0.297849        -1.963212
 H         2.801317        -1.535077        -1.286572
 H         0.914964         0.545077         0.732904
