19
Iteration:    25
 C         2.854205        -1.785607        -3.751249
 C         2.430808        -0.421160        -3.129474
 C         2.259953         0.934430        -3.846316
 C         1.109365         0.399143        -2.991682
 O         0.873705         0.871633        -1.645959
 C         2.222363         0.951115        -1.063117
 C         2.995149        -0.223948        -1.698411
 C         2.021463         0.496340         0.392553
 O         2.920711         0.194271         1.063760
 H         2.430119        -2.562751        -3.149137
 H         2.388737        -1.998558        -4.840082
 H         3.968966        -1.860480        -3.824808
 H         2.771696         1.830639        -3.524134
 H         1.954423         0.947785        -4.923797
 H         0.202376         0.082006        -3.487120
 H         2.634797         1.933503        -1.171541
 H         4.130489        -0.118731        -1.652192
 H         2.787837        -1.165581        -1.066198
 H         0.923387         0.389927         0.661256
