19
Iteration:  3131charge 0 multiplicity 1
 C         2.774792        -1.759726        -3.594791
 C         2.376733        -0.374767        -3.112211
 C         2.002373         0.808472        -3.998481
 C         1.069653         0.289537        -2.878628
 O         1.033542         1.012266        -1.656234
 C         2.356070         0.995313        -1.041547
 C         3.198649         0.055952        -1.882074
 C         1.984863         0.441352         0.428060
 O         2.831071        -0.063845         1.043294
 H         3.833100        -1.843152        -3.282419
 H         2.397270        -2.626304        -2.997022
 H         2.805396        -1.972302        -4.658553
 H         2.489668         1.693100        -3.727533
 H         1.879338         0.599505        -5.135409
 H         0.026912        -0.092276        -3.026205
 H         2.705252         2.069835        -0.986372
 H         4.162877         0.499031        -2.265024
 H         3.347247        -0.835936        -1.269648
 H         0.982664         0.590127         0.762805
