19
Iteration:   869
 C         2.420677        -1.714540        -3.928808
 C         2.470550        -0.387830        -3.182298
 C         2.374365         0.955974        -3.738087
 C         1.248342         0.381246        -3.019574
 O         1.011804         0.863333        -1.688583
 C         2.231484         0.637486        -1.029707
 C         3.184322        -0.348617        -1.806649
 C         1.977539         0.370821         0.431079
 O         2.801755         0.570102         1.282164
 H         1.378374        -2.120360        -3.756266
 H         2.519326        -1.684841        -5.058678
 H         3.308493        -2.318263        -3.630858
 H         2.886946         1.850026        -3.324966
 H         2.268308         1.183203        -4.833338
 H         0.299672         0.082916        -3.469290
 H         2.869120         1.580854        -0.978284
 H         4.258075        -0.007388        -1.789502
 H         3.023803        -1.359999        -1.290420
 H         0.910331        -0.131321         0.584177
