19
Iteration:  4747charge 0 multiplicity 1
 C         2.456444        -1.824034        -3.807813
 C         2.422218        -0.438625        -3.210539
 C         2.214567         0.929413        -3.976323
 C         1.218788         0.432672        -2.971011
 O         1.098959         0.944769        -1.675823
 C         2.439965         0.850426        -1.066258
 C         3.101359        -0.292133        -1.863232
 C         2.155225         0.329843         0.417809
 O         2.611925         0.471036         1.469669
 H         3.505379        -2.046041        -4.002382
 H         1.960601        -2.524371        -3.166955
 H         1.853237        -1.672210        -4.732940
 H         2.825874         1.751038        -3.629775
 H         1.878278         0.925115        -5.020646
 H         0.226909         0.035992        -3.349323
 H         2.982217         1.782603        -1.157670
 H         4.121143        -0.051370        -1.961052
 H         3.154972        -1.265135        -1.328803
 H         1.636696        -0.689417         0.046042
