19
Iteration:  1994
 C         2.455192        -1.738507        -3.852205
 C         2.386234        -0.394828        -3.137917
 C         2.133580         0.859453        -3.938696
 C         1.167140         0.210854        -2.931128
 O         1.097010         0.945865        -1.652668
 C         2.441833         0.919595        -1.065812
 C         3.304989        -0.097418        -1.874637
 C         2.123155         0.217997         0.286738
 O         2.604164         0.443234         1.459028
 H         3.489830        -2.040906        -4.057850
 H         2.206961        -2.577705        -3.164225
 H         1.847530        -1.664627        -4.778226
 H         2.762163         1.783543        -3.622060
 H         1.896428         0.672270        -4.926218
 H         0.175074        -0.232158        -3.165027
 H         2.743294         1.975076        -0.985884
 H         4.180024         0.468111        -2.105752
 H         3.572249        -1.022020        -1.300960
 H         1.383503        -0.567334         0.036516
