19
Iteration:  3679charge 0 multiplicity 1
 C         2.641441        -1.559835        -4.115098
 C         2.482065        -0.421258        -3.171647
 C         2.268807         1.009926        -3.712574
 C         1.130505         0.282881        -3.012905
 O         0.998308         0.758727        -1.649942
 C         2.281347         0.642624        -0.974563
 C         2.976176        -0.591931        -1.740081
 C         2.123769         0.364550         0.452381
 O         2.828899         0.828976         1.272286
 H         3.610606        -1.794225        -4.465387
 H         2.223887        -2.451348        -3.634500
 H         1.841334        -1.331990        -4.869916
 H         2.573848         1.998508        -3.410586
 H         2.105165         1.055241        -4.868889
 H         0.154973        -0.015107        -3.352142
 H         2.775321         1.603470        -1.096627
 H         4.026327        -0.397118        -1.683804
 H         2.860854        -1.605474        -1.353929
 H         1.371261        -0.438972         0.737086
