19
Iteration:  2568charge 0 multiplicity 1
 C         2.553288        -1.843749        -3.695952
 C         2.442685        -0.371659        -3.172066
 C         2.261984         0.929867        -3.955502
 C         1.185801         0.422937        -2.996742
 O         0.904227         0.891597        -1.730920
 C         2.217604         0.807984        -1.069040
 C         3.209513        -0.086194        -1.815676
 C         2.035875         0.388696         0.414811
 O         2.918345         0.257147         1.306816
 H         3.506354        -2.194381        -3.776754
 H         1.993103        -2.558569        -3.043003
 H         1.892091        -1.883866        -4.598120
 H         2.935374         1.796464        -3.575077
 H         1.973397         0.673102        -4.962860
 H         0.297877         0.052367        -3.502421
 H         2.551621         1.846538        -0.980557
 H         4.154939         0.437342        -1.963529
 H         3.353744        -1.028487        -1.359206
 H         0.927194         0.242868         0.686967
