19
Iteration:  4962charge 0 multiplicity 1
 C         2.567447        -1.703568        -3.890275
 C         2.386111        -0.470198        -3.147594
 C         2.276179         0.901298        -3.818381
 C         1.138499         0.449917        -2.975734
 O         1.084447         0.941535        -1.708495
 C         2.310376         0.700562        -0.972914
 C         3.081783        -0.431483        -1.855807
 C         1.989297         0.384715         0.447219
 O         2.845211         0.536921         1.272459
 H         3.529483        -1.805174        -4.446478
 H         2.475459        -2.557202        -3.300757
 H         1.830830        -1.794842        -4.731582
 H         2.609890         1.773062        -3.383112
 H         2.196500         0.909294        -4.888100
 H         0.142800         0.211308        -3.512593
 H         3.027746         1.634740        -0.986817
 H         4.187582        -0.244430        -1.905818
 H         2.878187        -1.353154        -1.286348
 H         0.878903         0.340847         0.642698
