19
Iteration:  1438charge 0 multiplicity 1
 C         2.662562        -1.777325        -3.818326
 C         2.383693        -0.433216        -3.194983
 C         2.043677         0.832143        -3.892678
 C         1.099469         0.346835        -2.944399
 O         1.167928         1.075930        -1.735332
 C         2.335173         0.726591        -0.976067
 C         3.284099        -0.089150        -1.912040
 C         1.946065         0.317140         0.465396
 O         2.738525         0.340916         1.333939
 H         3.558859        -1.789241        -4.341006
 H         2.737725        -2.516371        -2.936341
 H         1.804671        -2.088881        -4.500694
 H         2.648892         1.724661        -3.822031
 H         1.635958         0.773332        -4.987493
 H         0.146202         0.056322        -3.194093
 H         2.806923         1.655524        -0.767489
 H         4.290982         0.374047        -2.090730
 H         3.561121        -1.208528        -1.545195
 H         0.874272         0.017932         0.546584
