19
Iteration:   626charge 0 multiplicity 1
 C         2.676698        -1.760933        -3.757016
 C         2.409407        -0.406873        -3.118430
 C         2.398768         0.880495        -3.884746
 C         1.172934         0.429444        -3.060260
 O         1.009679         1.096433        -1.771143
 C         2.124134         0.789287        -0.958191
 C         2.942092        -0.323090        -1.698280
 C         1.928416         0.348448         0.455089
 O         2.964681         0.321888         1.134261
 H         2.620508        -2.640354        -3.090498
 H         2.082764        -1.790161        -4.687204
 H         3.805807        -1.824235        -4.131630
 H         2.872880         1.793319        -3.655172
 H         2.143625         0.759675        -4.939878
 H         0.175041         0.133202        -3.406656
 H         2.782875         1.709642        -0.965703
 H         4.046741        -0.212792        -1.657030
 H         2.704886        -1.249109        -1.287758
 H         0.971462        -0.106075         0.926979
