19
Iteration:  1713charge 0 multiplicity 1
 C         2.433693        -1.713212        -3.824682
 C         2.485184        -0.417323        -3.123658
 C         2.177702         0.925577        -3.833735
 C         1.165967         0.242291        -2.985051
 O         0.983937         0.838459        -1.669712
 C         2.349453         0.831247        -1.033272
 C         3.333994        -0.062064        -1.863154
 C         1.965930         0.252169         0.330993
 O         2.801915         0.468291         1.304146
 H         3.508523        -2.192258        -4.060262
 H         1.957030        -2.596695        -3.156979
 H         1.942598        -1.570785        -4.767427
 H         2.549659         1.795552        -3.431357
 H         2.274990         0.891521        -4.982110
 H         0.318080        -0.212880        -3.419503
 H         2.733230         1.836596        -0.821328
 H         4.280140         0.472090        -2.072560
 H         3.470092        -0.980964        -1.195960
 H         1.072582        -0.312425         0.408856
