19
Iteration:  1632
 C         2.651671        -1.728917        -3.827737
 C         2.301870        -0.453101        -3.121376
 C         2.021022         0.785138        -3.965069
 C         1.020396         0.395272        -2.852281
 O         1.224247         1.052034        -1.660828
 C         2.489247         0.809215        -1.058181
 C         3.304988        -0.112284        -1.980868
 C         2.151396         0.121701         0.319556
 O         2.497369         0.484041         1.461430
 H         3.501588        -1.438343        -4.403463
 H         2.894826        -2.563211        -3.151919
 H         1.810585        -2.062220        -4.550291
 H         2.697087         1.675348        -3.797391
 H         1.747493         0.602635        -5.025169
 H         0.051886        -0.097256        -3.064596
 H         2.915862         1.840545        -0.765955
 H         4.294481         0.206138        -2.302690
 H         3.469849        -1.080320        -1.479442
 H         1.401299        -0.714037         0.232543
