19
Iteration:  4861charge 0 multiplicity 1
 C         2.449831        -1.772213        -3.808129
 C         2.348544        -0.420651        -3.215010
 C         2.288992         0.869216        -3.953817
 C         1.141077         0.453391        -2.992597
 O         1.137146         0.963056        -1.650196
 C         2.361603         0.798327        -0.982919
 C         3.145640        -0.305134        -1.875717
 C         2.142569         0.233739         0.375676
 O         2.644305         0.542897         1.393534
 H         3.474230        -1.941454        -4.074434
 H         2.165588        -2.619997        -3.178544
 H         1.927945        -2.041019        -4.697846
 H         2.831976         1.771942        -3.513450
 H         2.080220         1.043759        -5.012983
 H         0.236114         0.166034        -3.393174
 H         2.934669         1.819629        -0.810342
 H         4.227973         0.063404        -2.050638
 H         3.277761        -1.280949        -1.351946
 H         1.421491        -0.606429         0.285447
