19
Iteration:  4265charge 0 multiplicity 1
 C         2.502883        -1.715928        -3.942816
 C         2.451685        -0.364650        -3.217688
 C         2.101579         0.935748        -3.907724
 C         1.173913         0.328418        -2.880332
 O         1.207266         0.992689        -1.648753
 C         2.506225         0.745979        -1.014465
 C         3.170100        -0.445137        -1.900842
 C         1.999528         0.247497         0.392984
 O         2.640283         0.633805         1.434661
 H         3.410035        -1.867824        -4.571705
 H         2.468827        -2.444182        -3.135916
 H         1.723318        -2.039554        -4.626516
 H         2.597210         1.909203        -3.793340
 H         1.729896         0.831276        -4.942287
 H         0.215140         0.077041        -3.162544
 H         2.908338         1.752494        -0.991113
 H         4.251508        -0.447579        -1.958042
 H         2.726496        -1.330890        -1.362702
 H         1.168442        -0.491955         0.289403
