19
Iteration:  4125charge 0 multiplicity 1
 C         2.596982        -1.594649        -4.051571
 C         2.360331        -0.451231        -3.113832
 C         2.292085         0.887423        -3.813995
 C         1.095648         0.310038        -2.974575
 O         1.002049         0.937317        -1.688580
 C         2.242597         0.684441        -0.985420
 C         3.064892        -0.459331        -1.710296
 C         2.055182         0.420643         0.426359
 O         2.927138         0.561426         1.267409
 H         3.635865        -1.603289        -4.342713
 H         2.388856        -2.452675        -3.356087
 H         2.062506        -1.649555        -5.050389
 H         2.886309         1.663612        -3.491127
 H         2.359007         0.981715        -4.943545
 H         0.179479         0.120505        -3.555052
 H         2.928450         1.557189        -1.010694
 H         4.112248        -0.288156        -1.674268
 H         2.769211        -1.426709        -1.242246
 H         0.943122         0.293831         0.748539
