19
Iteration:  4560
 C         2.561702        -1.745626        -3.839517
 C         2.470756        -0.375776        -3.144910
 C         2.382609         1.015233        -3.811466
 C         1.175763         0.463566        -3.023791
 O         0.951972         0.757484        -1.672310
 C         2.170745         0.726832        -1.090089
 C         2.929049        -0.410602        -1.741356
 C         2.066027         0.555189         0.449163
 O         2.974900         0.416139         1.187258
 H         3.589091        -2.083184        -3.842084
 H         2.008023        -2.437892        -3.303094
 H         2.192849        -1.762790        -4.855793
 H         2.923624         1.815289        -3.403405
 H         2.472422         0.780203        -4.879155
 H         0.163530         0.285066        -3.467062
 H         2.631975         1.736554        -1.291727
 H         3.950516        -0.194981        -1.618528
 H         2.822034        -1.380220        -1.331950
 H         0.964636         0.457602         0.834634
