19
Iteration:  3142
 C         2.769175        -1.806334        -3.652908
 C         2.435902        -0.354760        -3.038595
 C         2.043060         0.795867        -3.874422
 C         1.038220         0.252047        -2.822122
 O         1.001748         1.069536        -1.700468
 C         2.246695         0.966557        -1.033156
 C         3.293213         0.044116        -1.881766
 C         1.976425         0.481717         0.330429
 O         2.847023        -0.079073         1.031975
 H         3.820318        -2.010835        -3.403834
 H         2.015891        -2.434544        -3.157100
 H         2.602713        -1.974832        -4.725616
 H         2.420888         1.765737        -3.753326
 H         1.745137         0.588048        -4.980331
 H         0.093972        -0.268106        -3.144724
 H         2.724427         1.993273        -0.975165
 H         4.150331         0.720255        -2.154752
 H         3.794190        -0.767904        -1.399367
 H         1.041957         0.719832         0.714042
