19
Iteration:  2975
 C         2.703586        -1.645792        -3.926096
 C         2.435691        -0.403394        -3.115299
 C         2.173871         0.901593        -3.910991
 C         1.034790         0.275661        -3.060050
 O         0.977977         0.845677        -1.671653
 C         2.258695         0.806589        -1.023322
 C         3.111673        -0.235247        -1.746949
 C         2.032828         0.452297         0.541597
 O         2.945423         0.358094         1.259783
 H         3.743848        -1.943112        -3.899761
 H         2.011721        -2.530874        -3.607030
 H         2.546478        -1.500430        -5.025985
 H         2.533519         1.918937        -3.638701
 H         1.996282         0.870757        -5.048856
 H         0.079714        -0.104682        -3.476423
 H         2.672615         1.868562        -1.042744
 H         4.163256        -0.018702        -1.720236
 H         3.093413        -1.229680        -1.115418
 H         0.998699         0.325165         0.721816
