19
Iteration:  3785
 C         2.475588        -1.678660        -4.015705
 C         2.474493        -0.450163        -3.110304
 C         2.161654         0.942968        -3.895654
 C         1.207742         0.357083        -2.938035
 O         1.070326         0.890813        -1.609146
 C         2.423153         0.683484        -1.012886
 C         3.230909        -0.290713        -1.820461
 C         2.037248         0.193645         0.375036
 O         2.681854         0.690251         1.356793
 H         3.445268        -2.214773        -4.082210
 H         1.693483        -2.227113        -3.433374
 H         2.132256        -1.571637        -5.053602
 H         2.479934         1.842759        -3.478041
 H         1.903863         0.838606        -5.012843
 H         0.304604        -0.087184        -3.311753
 H         2.768150         1.738567        -0.909931
 H         4.222471         0.018357        -2.143066
 H         3.226082        -1.278455        -1.276799
 H         1.287204        -0.696412         0.424177
