19
Iteration:  4374charge 0 multiplicity 1
 C         2.347666        -1.792140        -3.791423
 C         2.391996        -0.385476        -3.182540
 C         2.334272         0.995087        -3.922922
 C         1.172131         0.424123        -2.976416
 O         1.095560         0.882925        -1.663302
 C         2.368244         0.683129        -1.003531
 C         3.204350        -0.245157        -1.909695
 C         2.051288         0.165785         0.378708
 O         2.709880         0.621302         1.365339
 H         3.470046        -2.107987        -3.833515
 H         1.804271        -2.423387        -3.072450
 H         1.866242        -2.053039        -4.739692
 H         2.848197         1.965036        -3.501597
 H         2.153816         1.035260        -5.003032
 H         0.322690         0.069922        -3.534294
 H         2.765045         1.723966        -0.817938
 H         4.162288         0.224644        -2.088778
 H         3.578910        -1.266475        -1.730174
 H         1.324692        -0.630685         0.646566
