19
Iteration:  1955charge 0 multiplicity 1
 C         2.649709        -1.723139        -3.768036
 C         2.391850        -0.335723        -3.180349
 C         2.113633         0.939345        -4.037591
 C         1.119811         0.374879        -2.925668
 O         1.069364         0.973295        -1.691961
 C         2.330923         0.765442        -0.986941
 C         3.108897        -0.290871        -1.833157
 C         2.136011         0.146732         0.353477
 O         2.732945         0.534769         1.373066
 H         3.674199        -1.739135        -4.134902
 H         2.492903        -2.422177        -2.909380
 H         2.053555        -2.095539        -4.576643
 H         2.702480         1.838665        -3.941107
 H         1.937752         0.767274        -5.129171
 H         0.126867         0.041219        -3.314758
 H         2.906856         1.688675        -0.873210
 H         4.189667        -0.059555        -2.016646
 H         3.105378        -1.274658        -1.347854
 H         1.383982        -0.641572         0.548870
