19
Iteration:    82
 C         2.621078        -1.676325        -3.944485
 C         2.541491        -0.396621        -3.158850
 C         2.321620         0.917906        -3.828399
 C         1.227590         0.308763        -2.962729
 O         0.950000         0.780295        -1.731381
 C         2.067466         0.764966        -1.032503
 C         2.958456        -0.277996        -1.737191
 C         2.021040         0.495341         0.529385
 O         2.964501         0.469128         1.228170
 H         2.146558        -2.603499        -3.546535
 H         2.074121        -1.398266        -5.000351
 H         3.718397        -1.931535        -4.179477
 H         3.066242         1.737811        -3.590724
 H         2.168315         0.840701        -4.919007
 H         0.355182         0.038053        -3.589156
 H         2.656504         1.652276        -1.046436
 H         4.055119        -0.019929        -1.475137
 H         2.754801        -1.319401        -1.216286
 H         0.894922         0.121822         0.892509
