19
Iteration:  1206
 C         2.478579        -1.633584        -3.930410
 C         2.468895        -0.409311        -3.133129
 C         2.353153         1.038934        -3.787630
 C         1.149004         0.344643        -3.028405
 O         0.957258         0.764419        -1.700985
 C         2.217684         0.659671        -0.984988
 C         3.011529        -0.413198        -1.688924
 C         2.149483         0.222789         0.434619
 O         2.894226         0.749616         1.179192
 H         3.489561        -1.954985        -4.092556
 H         2.098607        -2.514017        -3.358461
 H         1.884805        -1.558720        -4.930088
 H         2.759670         1.879809        -3.319080
 H         2.259773         1.211266        -4.920117
 H         0.200169         0.213150        -3.665351
 H         2.752452         1.684546        -0.959425
 H         4.068527        -0.092297        -1.629545
 H         2.949949        -1.378889        -1.306369
 H         1.597747        -0.686389         0.615858
