19
Iteration:  2898
 C         2.637675        -1.617761        -3.959658
 C         2.505785        -0.296314        -3.277970
 C         2.299091         1.027833        -3.863540
 C         1.170941         0.369970        -3.002645
 O         0.885328         0.638623        -1.640799
 C         2.166813         0.552752        -0.929700
 C         2.980213        -0.441242        -1.768122
 C         2.084748         0.417602         0.532850
 O         2.997569         0.680189         1.244744
 H         3.615647        -1.947131        -4.103695
 H         2.271965        -2.299861        -3.171186
 H         2.131768        -1.693950        -4.919328
 H         2.773437         1.919830        -3.489595
 H         2.105169         1.066530        -4.982147
 H         0.323402         0.526300        -3.661782
 H         2.646611         1.526839        -1.043741
 H         4.022392        -0.412112        -1.689253
 H         2.586714        -1.435888        -1.470412
 H         0.883683         0.234039         0.756548
