19
Iteration:  4195
 C         2.413868        -1.749259        -3.975615
 C         2.359059        -0.458693        -3.171244
 C         2.321596         0.936643        -3.796679
 C         1.145717         0.476116        -3.020193
 O         1.006391         0.856913        -1.682328
 C         2.281983         0.658037        -1.010181
 C         3.296645        -0.298114        -1.766744
 C         2.075438         0.181890         0.492511
 O         2.786409         0.703118         1.265279
 H         3.423557        -2.152276        -4.132960
 H         1.759252        -2.429664        -3.429545
 H         2.067290        -1.779465        -5.006706
 H         2.980210         1.838385        -3.519551
 H         2.251858         0.989727        -4.877695
 H         0.088822         0.432553        -3.464753
 H         2.765281         1.592451        -0.637046
 H         4.263710         0.194441        -2.110010
 H         3.324670        -1.261594        -1.317095
 H         1.281912        -0.596619         0.808049
