19
Iteration:  2278charge 0 multiplicity 1
 C         2.579966        -1.823925        -3.601271
 C         2.413559        -0.370780        -3.154825
 C         2.127519         0.886218        -4.062392
 C         1.167246         0.371307        -2.969697
 O         1.104480         0.979805        -1.691879
 C         2.341722         0.846948        -0.986903
 C         3.212897         0.003167        -1.928208
 C         1.984477         0.272726         0.340594
 O         2.742779         0.236574         1.320551
 H         3.641145        -2.000754        -4.028808
 H         2.322700        -2.465975        -2.676736
 H         2.037523        -2.289479        -4.417358
 H         2.569141         1.861098        -3.961625
 H         1.740700         0.825553        -5.039259
 H         0.214488        -0.078806        -3.246210
 H         2.854853         1.787122        -0.754700
 H         4.198465         0.437214        -2.110829
 H         3.574969        -1.024292        -1.440401
 H         0.985551        -0.000480         0.627943
