19
Iteration:  4143charge 0 multiplicity 1
 C         2.552591        -1.724028        -3.958388
 C         2.483716        -0.400518        -3.141034
 C         2.257170         0.964610        -3.829693
 C         1.198783         0.434970        -3.007853
 O         1.024106         0.752861        -1.667907
 C         2.293825         0.856625        -1.055966
 C         2.926556        -0.441809        -1.736264
 C         2.063511         0.416957         0.450408
 O         2.897222         0.554506         1.315623
 H         3.646066        -1.878282        -4.347867
 H         2.131805        -2.678945        -3.665204
 H         1.962341        -1.509715        -4.833485
 H         2.716821         1.987833        -3.519387
 H         2.069829         0.950772        -4.952208
 H         0.170915         0.075089        -3.389596
 H         3.001708         1.724353        -1.181792
 H         4.056112        -0.465370        -1.708496
 H         2.603752        -1.423208        -1.310587
 H         1.214973        -0.235983         0.558459
