19
Iteration:  1696
 C         2.488976        -1.662495        -3.764168
 C         2.479801        -0.289452        -3.084830
 C         2.113928         0.847063        -3.895221
 C         1.128059         0.226809        -2.923580
 O         1.096863         0.952299        -1.727149
 C         2.289510         0.739868        -1.017492
 C         3.331721        -0.156235        -1.824085
 C         2.067664         0.176664         0.275703
 O         2.716235         0.500117         1.291645
 H         3.393020        -2.086036        -4.111847
 H         1.996626        -2.348571        -3.192544
 H         1.956492        -1.594123        -4.752205
 H         2.483659         1.906376        -3.578951
 H         1.986952         0.829721        -4.948581
 H         0.187369        -0.356438        -3.080576
 H         2.712061         1.761605        -0.926212
 H         4.251656         0.425568        -2.010905
 H         3.684359        -1.022923        -1.264391
 H         1.168374        -0.594881         0.299409
