19
Iteration:  1848
 C         2.680798        -1.721664        -4.017701
 C         2.453633        -0.366138        -3.279527
 C         2.299611         1.044113        -3.770491
 C         1.166140         0.329495        -3.053569
 O         0.929598         0.684972        -1.659518
 C         2.081558         0.582683        -0.926841
 C         3.036036        -0.423619        -1.789955
 C         2.021950         0.694287         0.526308
 O         2.989712         0.520526         1.272786
 H         3.841991        -1.915458        -4.219391
 H         2.247838        -2.484949        -3.358609
 H         2.059882        -1.838496        -5.007856
 H         2.932041         1.673160        -3.125852
 H         2.051946         1.146588        -4.843935
 H         0.249775         0.074025        -3.642043
 H         2.702556         1.542992        -1.063422
 H         4.111951        -0.158193        -1.624542
 H         2.836220        -1.447745        -1.420515
 H         1.006213         1.186162         0.895895
