19
Iteration:  3305
 C         2.782684        -1.830424        -3.572159
 C         2.532158        -0.303760        -3.100159
 C         1.867636         0.801949        -3.951645
 C         1.082951         0.265379        -2.908316
 O         1.034267         1.046658        -1.729045
 C         2.318269         0.995330        -1.069567
 C         3.330067         0.096547        -1.870848
 C         2.087446         0.524978         0.380465
 O         2.673974        -0.176321         1.119009
 H         3.863620        -2.147993        -3.811435
 H         2.355107        -2.584813        -2.794680
 H         2.040695        -2.018086        -4.420026
 H         2.237473         1.926192        -3.848892
 H         1.589282         0.556848        -4.940187
 H         0.233548        -0.408603        -3.037107
 H         2.792492         2.011847        -0.914099
 H         4.198834         0.641386        -2.234067
 H         3.784509        -0.707753        -1.187306
 H         1.179342         0.933569         0.705926
