19
Iteration:  2128
 C         2.473525        -1.713165        -3.720572
 C         2.448579        -0.382868        -3.154335
 C         2.047610         0.775723        -4.034552
 C         1.149337         0.283121        -2.878318
 O         1.219632         1.062317        -1.700640
 C         2.455475         0.769634        -0.969245
 C         3.331053         0.045491        -1.938043
 C         2.037946         0.063163         0.317844
 O         2.564099         0.442109         1.399506
 H         3.383976        -2.078585        -4.098687
 H         2.265087        -2.474652        -2.885589
 H         1.692832        -1.778255        -4.447553
 H         2.490221         1.797480        -4.069596
 H         1.885703         0.353518        -5.096784
 H         0.203779        -0.157468        -3.141537
 H         2.730479         1.792930        -0.763405
 H         4.141571         0.713042        -2.324326
 H         3.761588        -0.852332        -1.522105
 H         1.208786        -0.730915         0.360400
