19
Iteration:  3632charge 0 multiplicity 1
 C         2.658814        -1.618934        -4.102383
 C         2.415055        -0.457537        -3.162380
 C         2.242454         0.965578        -3.804062
 C         1.144267         0.413609        -3.024084
 O         0.906964         0.641466        -1.577745
 C         2.277294         0.590941        -1.031723
 C         3.072582        -0.412477        -1.816160
 C         2.019988         0.507165         0.497943
 O         2.930791         0.702518         1.350546
 H         3.699615        -1.859632        -3.967203
 H         2.173600        -2.545958        -3.692858
 H         2.315481        -1.368661        -5.081263
 H         2.946072         1.773429        -3.399982
 H         2.158533         1.008866        -4.842476
 H         0.115885         0.370185        -3.476611
 H         2.774288         1.546518        -1.364631
 H         4.149612        -0.364905        -1.809153
 H         3.006763        -1.470463        -1.512857
 H         0.913990         0.287531         0.766271
