19
Iteration:  1706
 C         2.425636        -1.687000        -3.819761
 C         2.516437        -0.382181        -3.065888
 C         2.145934         0.896020        -3.877344
 C         1.101418         0.248944        -2.934653
 O         1.019919         0.873692        -1.722050
 C         2.354556         0.794353        -1.048705
 C         3.377885        -0.075001        -1.814395
 C         2.010836         0.220076         0.332123
 O         2.749514         0.477085         1.262139
 H         3.476891        -1.975665        -3.901695
 H         1.951643        -2.379001        -3.211999
 H         1.867358        -1.687045        -4.761840
 H         2.537146         1.770892        -3.299425
 H         2.332406         0.868903        -4.928755
 H         0.224217        -0.352509        -3.215240
 H         2.753786         1.782849        -0.923218
 H         4.333063         0.483347        -1.966101
 H         3.566386        -1.094775        -1.517497
 H         1.077064        -0.468022         0.486235
