19
Iteration:   963
 C         2.600534        -1.710021        -3.861324
 C         2.406144        -0.421834        -3.043689
 C         2.245010         0.917506        -3.876626
 C         1.141736         0.306612        -2.958552
 O         1.041718         1.030560        -1.725584
 C         2.266047         0.782354        -1.026719
 C         3.123977        -0.282188        -1.780355
 C         1.981917         0.422933         0.421700
 O         2.861760         0.308571         1.226192
 H         1.877615        -1.787348        -4.744946
 H         3.633634        -1.867130        -4.178752
 H         2.494495        -2.553481        -3.053916
 H         2.765785         1.879686        -3.689593
 H         2.124097         0.757424        -5.025734
 H         0.190727        -0.076966        -3.488103
 H         2.813945         1.733964        -0.928132
 H         4.175971         0.005163        -1.978226
 H         3.084227        -1.241334        -1.338117
 H         0.825692         0.282033         0.584611
