19
Iteration:   269charge 0 multiplicity 1
 C         2.256956        -1.699789        -4.196112
 C         2.488079        -0.479395        -3.186250
 C         2.191744         0.977611        -3.834940
 C         1.280835         0.355064        -2.889883
 O         1.277723         0.798882        -1.545541
 C         2.566028         0.612313        -0.981437
 C         3.329395        -0.427241        -1.911886
 C         2.234746         0.196442         0.485152
 O         2.162644         0.975426         1.393005
 H         1.801205        -2.597103        -3.729430
 H         1.398828        -1.337470        -4.923114
 H         3.198924        -2.074436        -4.804923
 H         2.676806         1.781105        -3.334587
 H         2.061954         0.994503        -4.898200
 H         0.299250        -0.077696        -3.196706
 H         3.126305         1.572626        -0.903023
 H         4.330462         0.025212        -2.030391
 H         3.505900        -1.428688        -1.466223
 H         1.997551        -0.909788         0.584689
