19
Iteration:  4056charge 0 multiplicity 1
 C         2.496998        -1.649323        -3.876866
 C         2.517469        -0.322383        -3.177500
 C         2.227694         1.025468        -3.843050
 C         1.222724         0.330907        -3.006682
 O         0.973333         0.701469        -1.700466
 C         2.271968         0.749194        -1.078405
 C         3.014493        -0.439506        -1.658674
 C         2.085650         0.598760         0.373575
 O         2.918628         0.379588         1.306156
 H         3.531116        -1.887479        -4.324839
 H         2.286038        -2.323562        -3.059968
 H         1.874583        -1.684015        -4.730902
 H         2.884716         1.968926        -3.609479
 H         2.007832         1.004252        -4.886900
 H         0.276560         0.093768        -3.479046
 H         2.700867         1.703301        -1.462068
 H         4.053759        -0.092196        -1.597846
 H         2.749551        -1.439241        -1.318044
 H         0.950417         0.575022         0.652701
