19
Iteration:  4452charge 0 multiplicity 1
 C         2.583016        -1.781991        -3.938956
 C         2.436083        -0.392890        -3.123452
 C         2.164266         0.958095        -3.833108
 C         1.142773         0.379134        -2.950889
 O         1.151756         1.001931        -1.650569
 C         2.356331         0.717882        -1.072737
 C         3.059621        -0.434357        -1.761875
 C         1.962599         0.425241         0.337290
 O         2.819577         0.496503         1.303004
 H         3.577533        -1.721507        -4.423223
 H         2.594231        -2.586497        -3.164795
 H         1.888532        -2.089132        -4.817304
 H         2.632449         1.895884        -3.497460
 H         2.114423         1.121928        -4.916364
 H         0.177119        -0.241676        -3.193323
 H         2.907829         1.681941        -1.154986
 H         4.108468        -0.406749        -1.763896
 H         2.706736        -1.447478        -1.417314
 H         0.924810         0.115501         0.697365
