19
Iteration:  3705charge 0 multiplicity 1
 C         2.550832        -1.563087        -4.130502
 C         2.405662        -0.512201        -3.120891
 C         2.338056         0.877922        -3.742756
 C         1.111006         0.329541        -3.014756
 O         0.950202         0.816627        -1.614806
 C         2.318322         0.665090        -0.957374
 C         3.070953        -0.447377        -1.738067
 C         2.152554         0.236894         0.418245
 O         2.769760         0.852134         1.252211
 H         3.574924        -1.332155        -4.614775
 H         2.562398        -2.635990        -3.916696
 H         1.780283        -1.235574        -4.807605
 H         2.981182         1.649454        -3.258960
 H         2.327822         0.970091        -4.778601
 H         0.123235         0.164910        -3.505059
 H         2.683163         1.673334        -0.945976
 H         4.193603        -0.214675        -1.679909
 H         3.049899        -1.453823        -1.282725
 H         1.453754        -0.578886         0.690932
