19
Iteration:  1338
 C         2.550544        -1.773293        -3.829880
 C         2.402250        -0.405360        -3.138999
 C         2.319038         0.991244        -3.845030
 C         1.164793         0.441116        -3.059968
 O         0.912401         0.771619        -1.654523
 C         2.208914         0.685638        -1.003335
 C         3.139866        -0.285951        -1.820818
 C         2.025794         0.487182         0.489597
 O         2.961729         0.423271         1.218569
 H         3.552209        -1.978851        -3.741828
 H         1.947034        -2.572916        -3.355584
 H         2.235119        -1.694369        -4.935303
 H         2.948505         1.843411        -3.506873
 H         2.219256         1.124134        -4.881574
 H         0.241001         0.149467        -3.698343
 H         2.639072         1.657586        -1.033696
 H         4.045283         0.285177        -1.948098
 H         3.214739        -1.362552        -1.422825
 H         0.863666         0.478467         0.663703
