19
Iteration:  1333charge 0 multiplicity 1
 C         2.529637        -1.755217        -3.873288
 C         2.441737        -0.421638        -3.178517
 C         2.308022         0.986822        -3.830662
 C         1.131719         0.445916        -3.037113
 O         0.927786         0.749755        -1.647191
 C         2.242284         0.678123        -1.030906
 C         3.097286        -0.257376        -1.769501
 C         2.031030         0.487739         0.435293
 O         2.950330         0.435708         1.275435
 H         3.702959        -2.030686        -3.906424
 H         1.926861        -2.515965        -3.369158
 H         2.250462        -1.723890        -4.901392
 H         2.955375         1.777819        -3.440177
 H         2.270587         0.926174        -4.975149
 H         0.285289         0.173744        -3.608682
 H         2.560240         1.790682        -1.120591
 H         4.139668         0.158491        -1.907269
 H         3.099450        -1.324358        -1.462663
 H         1.003073         0.563639         0.720781
