19
Iteration:  1627
 C         2.613809        -1.722217        -3.840650
 C         2.333112        -0.443097        -3.115027
 C         2.016038         0.785045        -3.941597
 C         1.051373         0.324233        -2.875009
 O         1.220109         1.072835        -1.624228
 C         2.488962         0.809362        -1.017670
 C         3.315410        -0.125433        -1.959341
 C         2.144629         0.143432         0.311305
 O         2.478589         0.483862         1.375041
 H         3.499391        -1.623449        -4.569234
 H         2.815842        -2.545772        -3.139520
 H         1.870514        -2.009963        -4.506667
 H         2.591510         1.675099        -3.857548
 H         1.773952         0.802361        -5.043102
 H         0.003464         0.011666        -2.874487
 H         2.886845         1.747908        -0.757109
 H         4.333059         0.292222        -2.199789
 H         3.658775        -1.053838        -1.453599
 H         1.444384        -0.709738         0.311412
