19
Iteration:  1736charge 0 multiplicity 1
 C         2.534821        -1.779297        -3.887216
 C         2.454391        -0.401213        -3.214075
 C         2.257475         0.903306        -3.932263
 C         1.178520         0.419276        -2.972706
 O         0.949270         0.728316        -1.651027
 C         2.204334         0.858351        -1.053386
 C         3.171782        -0.121849        -1.811844
 C         2.060955         0.401317         0.468152
 O         2.863644         0.400950         1.371429
 H         3.687535        -2.113855        -4.056538
 H         2.263879        -2.639061        -3.094715
 H         2.005293        -1.844770        -4.821524
 H         2.972056         1.661228        -3.787632
 H         1.947080         0.969952        -5.019513
 H         0.255134         0.141244        -3.374133
 H         2.612905         1.853442        -1.170819
 H         4.108574         0.506321        -1.794515
 H         3.317041        -1.161202        -1.413516
 H         1.099429        -0.062166         0.513100
