19
Iteration:  2968charge 0 multiplicity 1
 C         2.685917        -1.640508        -4.014545
 C         2.412048        -0.438604        -3.105431
 C         2.190118         0.889924        -3.892452
 C         1.067825         0.262376        -3.073774
 O         0.942047         0.832869        -1.606368
 C         2.235657         0.889529        -1.062658
 C         3.174132        -0.278954        -1.654506
 C         1.972821         0.479707         0.486912
 O         2.981847         0.365947         1.253032
 H         3.688286        -2.030923        -3.810534
 H         2.094050        -2.425918        -3.669352
 H         2.577633        -1.343818        -5.023870
 H         2.653529         1.873709        -3.600273
 H         1.930734         0.736292        -4.884623
 H         0.111627         0.018518        -3.497182
 H         2.780636         1.811218        -1.097269
 H         4.247122         0.039403        -1.815828
 H         3.034058        -1.201431        -1.237421
 H         0.864369         0.117361         0.751686
