19
Iteration:  2282charge 0 multiplicity 1
 C         2.592924        -1.809912        -3.612774
 C         2.429395        -0.392298        -3.129827
 C         2.105252         0.865686        -4.031884
 C         1.155910         0.358488        -2.961482
 O         1.124128         0.988760        -1.716359
 C         2.297315         0.863665        -1.023311
 C         3.213954        -0.000035        -1.900423
 C         1.997047         0.282534         0.330684
 O         2.763617         0.225727         1.335792
 H         3.547678        -1.998477        -3.985069
 H         2.311955        -2.492083        -2.771779
 H         1.949409        -2.247178        -4.406462
 H         2.629638         1.893803        -3.710261
 H         1.853249         0.841907        -5.117416
 H         0.207136         0.012863        -3.342832
 H         2.743146         1.858541        -0.771410
 H         4.233369         0.376802        -2.204585
 H         3.566541        -0.936041        -1.584193
 H         0.878838        -0.019978         0.591288
