19
Iteration:  1612charge 0 multiplicity 1
 C         2.515611        -1.760912        -3.886868
 C         2.512201        -0.405078        -3.146071
 C         1.978494         0.846435        -3.913605
 C         1.164464         0.250054        -2.772865
 O         1.202134         1.081874        -1.613298
 C         2.482545         0.787557        -0.998489
 C         3.336099        -0.098919        -1.885802
 C         2.069197         0.093378         0.246469
 O         2.484071         0.542618         1.297812
 H         3.403120        -1.819164        -4.494110
 H         2.499663        -2.641319        -3.092915
 H         1.495169        -1.850697        -4.464281
 H         2.309865         1.885206        -3.530568
 H         1.669662         0.576544        -4.864727
 H         0.216937        -0.249755        -3.146743
 H         3.087806         1.715513        -0.715626
 H         4.174619         0.486849        -2.247583
 H         3.693133        -1.034489        -1.390103
 H         1.390723        -0.857566        -0.052914
