19
Iteration:  2550
 C         2.443267        -1.668424        -3.763692
 C         2.540131        -0.394111        -3.094614
 C         2.268342         0.835647        -3.972248
 C         1.164612         0.275101        -3.042543
 O         0.988893         0.846026        -1.657458
 C         2.253420         0.929007        -0.981309
 C         3.179594        -0.129440        -1.738485
 C         1.966751         0.481668         0.392728
 O         2.897348         0.238044         1.179570
 H         3.528347        -2.066779        -4.154087
 H         2.141717        -2.466088        -3.109613
 H         1.975132        -1.599641        -4.733929
 H         2.727654         1.759208        -3.704845
 H         2.129288         0.620256        -5.101586
 H         0.189202        -0.198896        -3.282355
 H         2.665616         1.965378        -0.992197
 H         4.165187         0.282012        -1.800193
 H         3.193976        -1.018772        -1.044030
 H         0.938914         0.161332         0.629498
