19
Iteration:  4438
 C         2.553097        -1.694267        -3.925937
 C         2.441331        -0.409161        -3.156197
 C         2.211227         0.917669        -3.852586
 C         1.139049         0.318098        -2.951838
 O         1.083253         0.998080        -1.705727
 C         2.398566         0.796308        -1.030728
 C         3.051431        -0.449237        -1.725903
 C         2.054165         0.368782         0.322387
 O         2.784858         0.498400         1.325832
 H         3.523400        -1.923217        -4.435232
 H         2.435660        -2.505476        -3.251482
 H         1.720638        -1.724183        -4.582344
 H         2.515209         1.988681        -3.425422
 H         2.038147         0.661755        -4.917345
 H         0.104095         0.067423        -3.251343
 H         3.148426         1.678130        -1.029036
 H         4.115221        -0.126517        -1.666184
 H         2.849650        -1.312748        -1.161999
 H         1.102138        -0.177455         0.309111
