19
Iteration:  4696
 C         2.414174        -1.813654        -3.919333
 C         2.400686        -0.429373        -3.148883
 C         2.310085         0.924539        -3.946110
 C         1.215946         0.431311        -2.936789
 O         1.066769         0.991054        -1.672748
 C         2.260068         0.688822        -0.944573
 C         3.254996        -0.220939        -1.867319
 C         2.040398         0.128175         0.437194
 O         2.744297         0.629770         1.317983
 H         3.443753        -2.099232        -4.015041
 H         1.886191        -2.558159        -3.203319
 H         1.746373        -1.762727        -4.757977
 H         3.015229         1.772730        -3.745686
 H         2.140020         0.655949        -5.079016
 H         0.249671         0.144847        -3.519013
 H         2.686610         1.733068        -0.670610
 H         4.339804         0.085295        -2.002241
 H         3.313517        -1.196707        -1.350818
 H         1.071038        -0.462409         0.593265
