19
Iteration:  1393charge 0 multiplicity 1
 C         2.582875        -1.667041        -3.690427
 C         2.475215        -0.315982        -3.039438
 C         2.217996         0.834221        -3.922155
 C         1.145791         0.337664        -3.001274
 O         0.937705         0.932134        -1.785838
 C         2.173280         1.042712        -1.091807
 C         3.061827        -0.187295        -1.699541
 C         2.066296         0.312692         0.379517
 O         3.005876         0.188534         1.194856
 H         3.577836        -1.894436        -3.824699
 H         2.216788        -2.474267        -2.968422
 H         2.032754        -1.744584        -4.729931
 H         2.843308         1.649639        -3.748903
 H         2.111662         0.514595        -5.018375
 H         0.209120        -0.004851        -3.418257
 H         2.535707         2.043953        -1.138547
 H         4.150711        -0.042882        -1.533688
 H         2.922473        -1.161199        -1.012464
 H         1.250752        -0.356856         0.286007
