19
Iteration:   535
 C         2.485735        -1.668968        -3.976597
 C         2.513739        -0.344549        -3.250313
 C         2.254821         0.910551        -3.878446
 C         1.171358         0.256941        -3.015997
 O         1.051063         0.726316        -1.667714
 C         2.417002         0.719971        -1.022377
 C         3.209085        -0.330672        -1.862350
 C         2.036885         0.798029         0.493337
 O         2.592217         0.297120         1.482928
 H         2.096469        -2.454117        -3.338988
 H         1.983655        -1.555528        -4.928561
 H         3.558173        -2.097812        -4.408947
 H         3.007781         1.665334        -3.492676
 H         2.094033         0.968154        -4.944536
 H         0.313458        -0.198843        -3.482865
 H         2.823645         1.781752        -1.006499
 H         4.225332        -0.060910        -1.885313
 H         3.075158        -1.292481        -1.435828
 H         1.086727         1.503675         0.703086
