19
Iteration:  4226
 C         2.427173        -1.687047        -3.989147
 C         2.395103        -0.466422        -3.171651
 C         2.264114         0.884846        -3.899405
 C         1.181758         0.364985        -2.950515
 O         1.081255         0.871508        -1.663909
 C         2.373696         0.864480        -1.027067
 C         3.173602        -0.314787        -1.836152
 C         2.131572         0.210727         0.396143
 O         2.676824         0.643285         1.463749
 H         3.401132        -2.004369        -4.319490
 H         2.019362        -2.506379        -3.322492
 H         1.798369        -1.491234        -4.924205
 H         2.863111         1.780401        -3.593953
 H         2.108793         0.735794        -4.902960
 H         0.176158         0.149804        -3.365799
 H         3.030384         1.760507        -0.959317
 H         4.253383        -0.241257        -2.130305
 H         2.970665        -1.299106        -1.402968
 H         1.508216        -0.650822         0.527940
