19
Iteration:  2026
 C         2.466324        -1.788684        -3.838405
 C         2.466762        -0.424068        -3.148531
 C         2.065921         0.860732        -4.013418
 C         1.168440         0.272472        -2.894610
 O         1.158817         1.068110        -1.676274
 C         2.365779         0.752559        -0.919801
 C         3.377620        -0.014338        -1.945659
 C         2.047331         0.042896         0.426093
 O         2.587702         0.536156         1.343020
 H         3.476769        -1.927424        -4.274563
 H         2.124110        -2.518416        -3.101156
 H         1.803054        -1.839344        -4.744364
 H         2.696408         1.804470        -4.050071
 H         1.725860         0.618075        -4.946998
 H         0.172820        -0.183114        -3.107543
 H         2.802645         1.753140        -0.723329
 H         4.211902         0.616560        -2.160232
 H         3.856381        -0.905877        -1.449678
 H         1.310162        -0.755472         0.567521
