19
Iteration:  2638charge 0 multiplicity 1
 C         2.480057        -1.764184        -3.877715
 C         2.516299        -0.368953        -3.034565
 C         2.160841         0.794769        -3.968574
 C         1.083430         0.240388        -2.936433
 O         1.096405         1.051199        -1.758839
 C         2.304146         0.921585        -0.986423
 C         3.171588        -0.073362        -1.711151
 C         2.085648         0.279665         0.299493
 O         2.789648         0.320044         1.317198
 H         3.559276        -1.828070        -4.233401
 H         2.310939        -2.616618        -3.295613
 H         1.749973        -1.630464        -4.636318
 H         2.609211         1.739874        -3.738414
 H         2.164510         0.508189        -5.063238
 H         0.197234        -0.343498        -3.189477
 H         2.841372         1.878491        -0.873110
 H         4.216950         0.186918        -1.788113
 H         3.025913        -1.001887        -1.074353
 H         1.150762        -0.443979         0.204518
