19
Iteration:  1934charge 0 multiplicity 1
 C         2.657571        -1.723949        -3.891994
 C         2.383923        -0.423533        -3.146288
 C         2.163190         0.867577        -3.862160
 C         1.036152         0.333872        -3.057088
 O         1.078180         1.033698        -1.784663
 C         2.266471         0.712537        -1.030520
 C         3.111565        -0.252894        -1.816455
 C         2.081316         0.184158         0.523709
 O         2.843012         0.581309         1.395833
 H         3.685250        -1.682086        -4.334652
 H         2.354825        -2.582067        -3.311588
 H         2.018251        -1.870550        -4.769090
 H         2.555628         1.781866        -3.465415
 H         2.158654         1.005882        -4.963504
 H         0.123267        -0.030408        -3.561609
 H         2.848990         1.648435        -0.788530
 H         4.145139         0.184014        -1.889853
 H         3.275663        -1.274831        -1.434588
 H         1.315989        -0.642827         0.772677
