19
Iteration:  1241charge 0 multiplicity 1
 C         2.677582        -1.676961        -4.115564
 C         2.406893        -0.423857        -3.255516
 C         2.247567         0.908932        -3.810740
 C         1.106174         0.409603        -3.009914
 O         1.018528         0.748003        -1.616477
 C         2.320659         0.712642        -1.029749
 C         2.921351        -0.502697        -1.736133
 C         2.099712         0.467462         0.486670
 O         2.886151         0.683005         1.411788
 H         3.548140        -1.484467        -4.666325
 H         2.747104        -2.576292        -3.441914
 H         1.834120        -1.840589        -4.899436
 H         2.874825         1.792780        -3.470592
 H         1.952947         0.963334        -4.807180
 H         0.042883         0.506567        -3.527014
 H         3.080047         1.572948        -1.189808
 H         3.989928        -0.497337        -1.790362
 H         2.560634        -1.332434        -1.268674
 H         1.162836         0.001882         0.658061
