19
Iteration:  2131
 C         2.470385        -1.738202        -3.714700
 C         2.444523        -0.377097        -3.173525
 C         2.047086         0.777371        -4.045624
 C         1.154600         0.290265        -2.874784
 O         1.220697         1.056706        -1.723878
 C         2.462312         0.778085        -0.961769
 C         3.315401         0.057038        -1.944738
 C         2.028575         0.058254         0.346831
 O         2.570900         0.438229         1.419484
 H         3.418071        -2.183847        -4.137041
 H         2.346763        -2.410266        -2.864998
 H         1.693856        -1.897315        -4.545155
 H         2.434612         1.888937        -4.068334
 H         1.870006         0.448239        -5.068349
 H         0.199369        -0.137068        -3.118080
 H         2.855651         1.827443        -0.770936
 H         4.159302         0.757987        -2.271750
 H         3.696775        -0.858270        -1.510319
 H         1.210719        -0.755409         0.311346
