19
Iteration:  3326charge 0 multiplicity 1
 C         2.751698        -1.716804        -3.473382
 C         2.381268        -0.345967        -3.147838
 C         2.050807         0.778505        -4.075561
 C         1.060635         0.260198        -2.832328
 O         1.052044         0.966491        -1.615051
 C         2.416223         0.944051        -1.039565
 C         3.236786         0.091015        -2.001094
 C         2.005784         0.546702         0.377276
 O         2.684505        -0.157341         1.104044
 H         3.844126        -1.659379        -3.596851
 H         2.500327        -2.605392        -2.804040
 H         2.544462        -2.057472        -4.510267
 H         2.709400         1.728088        -3.886428
 H         1.593713         0.654319        -5.011135
 H         0.046141        -0.093281        -3.033013
 H         2.824815         2.017086        -1.018757
 H         4.046976         0.778707        -2.355696
 H         3.859105        -0.645105        -1.404552
 H         1.024402         0.964485         0.761709
