19
Iteration:  3137charge 0 multiplicity 1
 C         2.769967        -1.800330        -3.641154
 C         2.409252        -0.345380        -3.051928
 C         2.030222         0.790805        -3.943871
 C         1.040520         0.264368        -2.829927
 O         1.020558         1.043567        -1.679818
 C         2.303730         0.988480        -1.034914
 C         3.239244         0.053192        -1.896656
 C         1.954531         0.461917         0.348880
 O         2.852511        -0.075009         1.043815
 H         3.836842        -1.855922        -3.377977
 H         2.133580        -2.466910        -3.040455
 H         2.810645        -2.068047        -4.717552
 H         2.492488         1.807128        -3.698445
 H         1.849479         0.621719        -4.944326
 H         0.081869        -0.142029        -3.054398
 H         2.660160         2.005012        -1.062678
 H         4.186095         0.527427        -2.179013
 H         3.714962        -0.843412        -1.393674
 H         0.916055         0.690393         0.890529
