19
Iteration:  1633
 C         2.655477        -1.728480        -3.828378
 C         2.298258        -0.451990        -3.122797
 C         2.019521         0.784039        -3.972658
 C         1.020218         0.406155        -2.848919
 O         1.222901         1.049176        -1.667012
 C         2.490200         0.810179        -1.062682
 C         3.301315        -0.110937        -1.984408
 C         2.153202         0.119219         0.322174
 O         2.501461         0.484484         1.476245
 H         3.516363        -1.411577        -4.378798
 H         2.916649        -2.596101        -3.130974
 H         1.806100        -2.070343        -4.549897
 H         2.714936         1.686181        -3.777926
 H         1.745512         0.562458        -4.985632
 H         0.054051        -0.109247        -3.102078
 H         2.926003         1.837843        -0.781502
 H         4.278778         0.203881        -2.329060
 H         3.432967        -1.091468        -1.473228
 H         1.378603        -0.737020         0.203280
