19
Iteration:  4591charge 0 multiplicity 1
 C         2.604514        -1.713537        -3.996079
 C         2.378856        -0.471261        -3.146999
 C         2.372866         0.869282        -3.859004
 C         1.178201         0.390194        -3.001951
 O         0.964935         0.942584        -1.762111
 C         2.165486         0.804037        -1.048512
 C         2.915228        -0.379658        -1.741006
 C         2.029900         0.507397         0.586943
 O         3.018822         0.406745         1.333985
 H         3.724325        -1.723377        -4.163965
 H         2.374071        -2.627471        -3.473510
 H         2.255466        -1.788333        -5.012872
 H         2.911783         1.777498        -3.637904
 H         2.194491         0.605377        -4.960743
 H         0.216494         0.209664        -3.561176
 H         2.702094         1.747523        -1.092163
 H         4.019053        -0.152095        -1.761338
 H         2.775701        -1.336657        -1.223298
 H         0.972086         0.364169         0.880537
