19
Iteration:  4409charge 0 multiplicity 1
 C         2.430202        -1.744716        -3.975047
 C         2.354504        -0.404843        -3.153568
 C         2.354060         0.800978        -3.968947
 C         1.210236         0.408844        -3.006036
 O         1.043755         0.952943        -1.682545
 C         2.310490         0.825020        -0.982776
 C         3.118074        -0.262127        -1.785366
 C         2.123686         0.254021         0.439042
 O         2.766644         0.539308         1.414796
 H         3.464825        -1.933505        -4.324964
 H         2.102021        -2.631183        -3.346062
 H         1.804502        -1.637306        -4.932588
 H         2.777831         1.739289        -3.749707
 H         2.154825         0.622566        -5.009724
 H         0.143038         0.026668        -3.197882
 H         2.826965         1.764573        -0.831896
 H         4.047743         0.252053        -1.812514
 H         3.135125        -1.239499        -1.154797
 H         1.387548        -0.615560         0.502088
