19
Iteration:   365
 C         2.436296        -1.694094        -4.021272
 C         2.479622        -0.428166        -3.172243
 C         2.197482         0.874584        -3.923223
 C         1.199187         0.414520        -2.951586
 O         1.138443         0.884693        -1.723874
 C         2.409960         0.729816        -0.978110
 C         3.287492        -0.324419        -1.837884
 C         1.997277         0.285764         0.478820
 O         2.597269         0.623509         1.470119
 H         2.020815        -2.538369        -3.359531
 H         1.885329        -1.412819        -4.955322
 H         3.313699        -2.138932        -4.296880
 H         2.762364         1.801478        -3.854014
 H         1.997302         0.538856        -4.910701
 H         0.239183         0.099547        -3.377442
 H         2.850132         1.773585        -0.888660
 H         4.391859        -0.082260        -2.004680
 H         3.214337        -1.266262        -1.200239
 H         1.091080        -0.451465         0.443164
