19
Iteration:   334charge 0 multiplicity 1
 C         2.563649        -1.721940        -3.933322
 C         2.396081        -0.428144        -3.257547
 C         2.185328         0.939476        -3.916768
 C         1.177874         0.414008        -2.911176
 O         1.215912         1.050992        -1.641234
 C         2.461764         0.614295        -0.981867
 C         3.124473        -0.410055        -1.966020
 C         2.141398         0.100242         0.459026
 O         2.436317         0.791454         1.423400
 H         2.383915        -2.554667        -3.264365
 H         1.807734        -1.972638        -4.757351
 H         3.604687        -1.693661        -4.322765
 H         2.796921         1.763283        -3.549031
 H         1.964972         0.836517        -4.934327
 H         0.147189         0.029101        -3.097447
 H         3.081300         1.535596        -0.798141
 H         4.191795        -0.467130        -2.139758
 H         2.917644        -1.338097        -1.547572
 H         1.679722        -0.948414         0.653820
