19
Iteration:  4589
 C         2.597378        -1.718595        -3.998021
 C         2.376469        -0.476087        -3.159391
 C         2.386419         0.876190        -3.861205
 C         1.185711         0.390673        -3.017080
 O         0.950316         0.934275        -1.752420
 C         2.186037         0.809444        -1.040702
 C         2.906768        -0.365784        -1.736708
 C         2.006626         0.507892         0.576731
 O         3.033432         0.405577         1.338748
 H         3.753472        -1.704852        -4.137840
 H         2.341666        -2.700375        -3.433552
 H         2.291327        -1.831004        -5.041917
 H         2.970531         1.835524        -3.613462
 H         2.076715         0.617428        -4.932362
 H         0.220214         0.202156        -3.586876
 H         2.639719         1.798730        -1.093512
 H         4.085451        -0.196103        -1.735048
 H         2.765953        -1.376637        -1.234852
 H         0.996414         0.375939         0.928283
