19
Iteration:  2183
 C         2.562683        -1.715891        -3.619953
 C         2.369345        -0.398620        -3.103300
 C         2.086728         0.722852        -4.041958
 C         1.072137         0.389053        -2.911828
 O         1.210871         1.065767        -1.627056
 C         2.397911         0.870129        -0.989227
 C         3.282901        -0.046002        -1.912552
 C         2.088194         0.146549         0.214829
 O         2.586456         0.343006         1.322086
 H         3.446422        -1.754877        -4.170250
 H         2.575306        -2.555981        -2.854563
 H         1.953647        -2.001789        -4.465978
 H         2.607990         1.800791        -3.895500
 H         1.876347         0.550571        -5.120995
 H         0.177366        -0.149634        -3.086261
 H         2.793067         1.893124        -0.793336
 H         4.306605         0.417833        -2.192029
 H         3.503003        -0.978798        -1.433752
 H         1.304949        -0.631141        -0.073315
