19
Iteration:  3508
 C         2.615149        -1.685154        -3.825784
 C         2.487169        -0.408646        -3.060623
 C         2.050352         0.788778        -3.930714
 C         1.142859         0.211249        -2.956240
 O         0.980177         0.978354        -1.706534
 C         2.318190         0.920261        -1.043957
 C         3.248636        -0.052535        -1.769482
 C         2.016985         0.344684         0.400121
 O         2.846836         0.217734         1.227266
 H         3.691139        -1.661963        -4.097010
 H         2.205958        -2.416935        -3.155561
 H         2.038839        -1.669256        -4.753357
 H         2.464729         1.752382        -3.723139
 H         2.064578         0.573236        -4.969776
 H         0.176290        -0.130882        -3.322910
 H         2.656902         1.984209        -0.923699
 H         4.241750         0.404298        -1.899878
 H         3.372657        -0.882235        -1.071470
 H         0.928975         0.219108         0.484694
