19
Iteration:  2504charge 0 multiplicity 1
 C         2.738730        -1.747452        -3.899409
 C         2.401169        -0.429334        -3.090419
 C         2.156419         0.869017        -3.867763
 C         1.064487         0.301546        -2.955353
 O         0.980685         0.945029        -1.722162
 C         2.299713         0.815413        -1.029948
 C         3.087826        -0.294873        -1.799176
 C         2.060120         0.702991         0.483981
 O         2.844427         0.199829         1.245027
 H         3.751898        -1.734285        -4.443723
 H         2.841525        -2.580655        -3.194534
 H         2.070232        -1.979252        -4.738221
 H         2.709208         1.807475        -3.417276
 H         2.147983         0.836435        -4.964329
 H         0.141097        -0.131025        -3.331264
 H         2.836975         1.728387        -1.300945
 H         4.118534        -0.019365        -1.916907
 H         3.018199        -1.272734        -1.342311
 H         1.080915         1.154399         0.842839
