19
Iteration:   955
 C         2.650587        -1.676764        -3.816417
 C         2.410210        -0.404553        -3.122295
 C         2.166471         0.909266        -3.875750
 C         1.095065         0.325284        -2.946749
 O         1.092276         1.024799        -1.760913
 C         2.320706         0.760696        -1.036847
 C         3.108957        -0.319256        -1.763364
 C         1.955620         0.421675         0.397220
 O         2.838997         0.322276         1.240199
 H         1.822742        -1.893196        -4.416875
 H         3.615131        -1.641041        -4.292418
 H         2.526061        -2.660028        -3.232284
 H         2.816262         1.758030        -3.451754
 H         2.208756         0.840822        -4.990514
 H         0.102694         0.026219        -3.257497
 H         2.896115         1.664610        -0.998314
 H         4.239951        -0.083517        -1.854145
 H         3.058182        -1.347897        -1.244236
 H         0.947253         0.330166         0.695985
