19
Iteration:  2629charge 0 multiplicity 1
 C         2.530380        -1.696594        -3.764025
 C         2.468191        -0.430007        -3.102773
 C         2.171211         0.799382        -4.001706
 C         1.154753         0.314573        -2.942852
 O         1.055033         1.023035        -1.742499
 C         2.278009         0.954104        -1.006746
 C         3.187122        -0.164394        -1.711359
 C         2.051237         0.274890         0.340565
 O         2.810869         0.306899         1.269849
 H         3.609693        -1.953036        -4.249560
 H         2.122271        -2.530848        -3.152813
 H         1.833151        -1.662596        -4.633969
 H         2.516890         1.828613        -3.883450
 H         1.945997         0.662884        -5.014348
 H         0.194315        -0.134487        -3.124173
 H         2.633797         2.012126        -0.899878
 H         4.277037         0.157995        -1.777255
 H         3.269184        -1.063409        -1.017870
 H         1.280195        -0.475243         0.242588
