19
Iteration:  3089
 C         2.734391        -1.706626        -3.646336
 C         2.494488        -0.311988        -3.129830
 C         2.034730         0.804532        -4.031943
 C         1.096520         0.257359        -2.979726
 O         0.974816         1.031659        -1.700785
 C         2.225486         0.888552        -0.976138
 C         3.204112        -0.040722        -1.852734
 C         2.023476         0.484528         0.506552
 O         2.880847        -0.006209         1.124491
 H         3.713504        -1.759928        -4.198847
 H         2.521488        -2.398151        -2.823807
 H         2.001234        -1.879546        -4.457350
 H         2.448628         1.762654        -3.897002
 H         1.857629         0.516007        -5.129681
 H         0.246471        -0.418418        -3.245365
 H         2.732728         1.895993        -0.849512
 H         4.330244         0.334307        -1.822729
 H         3.370380        -1.016898        -1.321759
 H         0.952827         0.782131         0.942210
