19
Iteration:  1413charge 0 multiplicity 1
 C         2.674949        -1.757098        -3.723801
 C         2.420257        -0.373137        -3.073872
 C         2.161964         0.836876        -3.971612
 C         1.123780         0.336248        -2.972009
 O         1.000458         1.044824        -1.687065
 C         2.297075         0.900068        -1.025036
 C         3.091296        -0.131323        -1.733264
 C         2.064783         0.282198         0.311130
 O         2.868398         0.246219         1.208827
 H         3.697517        -1.828869        -4.166007
 H         2.532442        -2.602628        -3.024650
 H         1.849386        -1.792528        -4.522390
 H         2.485882         1.841542        -3.819963
 H         2.025573         0.748649        -5.011881
 H         0.139630        -0.130039        -3.237945
 H         2.737854         1.914569        -0.921732
 H         4.144076         0.108600        -1.853221
 H         3.097200        -1.182627        -1.196579
 H         1.007086        -0.116411         0.327183
