19
Iteration:  4338charge 0 multiplicity 1
 C         2.336601        -1.802623        -3.874877
 C         2.479071        -0.351007        -3.190336
 C         2.220899         0.957551        -3.923896
 C         1.240703         0.374862        -2.971373
 O         1.099713         0.919663        -1.622319
 C         2.408241         0.835074        -0.987468
 C         3.207611        -0.325991        -1.840034
 C         2.143235         0.217136         0.294999
 O         2.610156         0.579616         1.441997
 H         3.398877        -2.143130        -4.114940
 H         1.970505        -2.510246        -3.125577
 H         1.796820        -1.898228        -4.793364
 H         2.781755         1.913129        -3.835925
 H         1.740387         0.769694        -4.949689
 H         0.248228         0.033211        -3.305922
 H         3.001772         1.783538        -1.182363
 H         4.299905        -0.091177        -1.928205
 H         2.993960        -1.244654        -1.355324
 H         1.598000        -0.707161         0.063874
