19
Iteration:   968
 C         2.547024        -1.745029        -3.866931
 C         2.416935        -0.419809        -3.062225
 C         2.289736         0.879438        -3.891347
 C         1.180451         0.337519        -3.010246
 O         0.995101         1.010924        -1.700123
 C         2.241017         0.818255        -0.997976
 C         3.134142        -0.245632        -1.780762
 C         1.963408         0.422202         0.400698
 O         2.894118         0.292895         1.244695
 H         2.148488        -1.712957        -4.862378
 H         3.588398        -1.918769        -4.214042
 H         2.345410        -2.469398        -3.108442
 H         2.658655         1.898581        -3.659345
 H         2.025429         0.661235        -4.867430
 H         0.309084        -0.041947        -3.396954
 H         2.770500         1.784226        -0.968721
 H         4.176625         0.130604        -1.915630
 H         3.156589        -1.257316        -1.160302
 H         0.945819         0.241920         0.606194
