19
Iteration:   351
 C         2.478333        -1.693363        -3.974876
 C         2.414522        -0.389492        -3.190934
 C         2.204163         0.892128        -4.015591
 C         1.149737         0.350490        -3.039017
 O         1.212315         0.974955        -1.651408
 C         2.433568         0.626155        -0.965315
 C         3.184426        -0.365661        -1.819058
 C         2.101343         0.210892         0.495082
 O         2.520936         0.704606         1.479021
 H         2.103263        -2.592280        -3.355181
 H         1.878718        -1.675604        -4.841522
 H         3.518675        -1.850188        -4.333282
 H         2.690021         1.817267        -3.702071
 H         2.022325         0.938261        -5.146956
 H         0.163287         0.054381        -3.309254
 H         3.067846         1.502148        -0.846723
 H         4.186882         0.132739        -1.927580
 H         3.325085        -1.496237        -1.490758
 H         1.340282        -0.523934         0.499254
