19
Iteration:   559
 C         2.476182        -1.769901        -4.037362
 C         2.509353        -0.438928        -3.128402
 C         2.189625         1.019786        -3.892593
 C         1.237864         0.351968        -2.974343
 O         1.112786         0.789860        -1.656515
 C         2.421374         0.654684        -1.023351
 C         3.311795        -0.363813        -1.794108
 C         2.004213         0.730208         0.456746
 O         2.544766         0.353825         1.412021
 H         2.108336        -2.623551        -3.447788
 H         1.832667        -1.564627        -4.862506
 H         3.449845        -2.176311        -4.725629
 H         2.417230         2.045013        -3.645059
 H         1.808689         0.888146        -4.881026
 H         0.257947        -0.037639        -3.467605
 H         2.942195         1.689052        -1.047002
 H         4.248152         0.166467        -1.916819
 H         3.377797        -1.251048        -1.273879
 H         0.858811         1.089346         0.571997
