19
Iteration:  3942
 C         2.599925        -1.732429        -3.752762
 C         2.383443        -0.382871        -3.115813
 C         2.114436         0.946239        -3.955447
 C         1.133099         0.307856        -2.962384
 O         1.140597         1.032269        -1.725331
 C         2.286709         0.828490        -1.034107
 C         3.181297        -0.244703        -1.834342
 C         1.985467         0.315600         0.389242
 O         2.838494         0.309808         1.296983
 H         3.512277        -2.026514        -4.204350
 H         2.449947        -2.459351        -2.921808
 H         1.863123        -1.936969        -4.588396
 H         2.634738         1.833463        -3.567148
 H         2.100073         0.683943        -4.981901
 H         0.163263        -0.087741        -3.396697
 H         2.737571         1.866222        -0.977283
 H         4.187940         0.172484        -1.906196
 H         3.143900        -1.225375        -1.338534
 H         0.958201        -0.006843         0.582506
