19
Iteration:   204charge 0 multiplicity 1
 C         2.499060        -1.710217        -4.098673
 C         2.425503        -0.485627        -3.229284
 C         2.245304         1.003792        -3.687628
 C         1.185469         0.402485        -2.901940
 O         1.116505         0.815795        -1.545206
 C         2.501651         0.636100        -1.071573
 C         3.108597        -0.510724        -1.853468
 C         2.359461         0.187432         0.343021
 O         2.303783         0.951849         1.344170
 H         2.205207        -2.457533        -3.538935
 H         1.909094        -1.583162        -5.027207
 H         3.549237        -2.026720        -4.340779
 H         2.956877         1.663627        -3.282913
 H         2.000879         1.485536        -4.628698
 H         0.162668         0.352695        -3.272602
 H         3.005925         1.563761        -1.231644
 H         4.219188        -0.387233        -1.855181
 H         2.772501        -1.518206        -1.377882
 H         2.205282        -0.898543         0.435379
