19
Iteration:  1744charge 0 multiplicity 1
 C         2.592651        -1.757529        -3.848284
 C         2.406856        -0.371577        -3.234461
 C         2.263598         0.906523        -3.972583
 C         1.167034         0.431348        -3.049814
 O         0.896931         0.726055        -1.618590
 C         2.245888         0.817255        -1.029341
 C         3.155582        -0.164591        -1.829070
 C         2.041672         0.429250         0.515022
 O         2.907965         0.399764         1.370328
 H         3.625253        -1.834541        -4.145996
 H         2.288426        -2.611405        -3.150599
 H         2.094788        -1.923002        -4.790541
 H         2.965184         1.664754        -3.813631
 H         2.049494         0.786022        -5.093825
 H         0.269970         0.182667        -3.566450
 H         2.628399         1.902956        -1.108807
 H         4.195249         0.133731        -1.773977
 H         3.146158        -1.032615        -1.155361
 H         1.002167        -0.031284         0.620497
