19
Iteration:  1306
 C         2.506086        -1.634308        -4.050452
 C         2.492912        -0.450131        -3.166954
 C         2.237535         0.974904        -3.858990
 C         1.218337         0.269135        -2.983986
 O         1.011015         0.737208        -1.624513
 C         2.348361         0.838837        -1.046873
 C         3.036342        -0.433133        -1.719600
 C         2.051732         0.626354         0.480190
 O         2.852782         0.479379         1.343917
 H         3.423530        -1.725866        -4.448449
 H         2.178146        -2.616611        -3.619745
 H         1.950327        -1.427390        -5.033761
 H         2.696657         1.894958        -3.417718
 H         2.026637         0.877121        -4.865418
 H         0.309766        -0.192888        -3.555745
 H         2.704383         1.795687        -1.345201
 H         4.102060        -0.499638        -1.690414
 H         2.807052        -1.408322        -1.397380
 H         0.916811         0.279385         0.694541
