19
Iteration:  4469charge 0 multiplicity 1
 C         2.634685        -1.696055        -3.910387
 C         2.384541        -0.495875        -3.220624
 C         2.221516         0.943242        -3.892195
 C         1.102356         0.388390        -2.968290
 O         1.057845         0.938827        -1.719698
 C         2.357682         0.704371        -0.952478
 C         3.031208        -0.432820        -1.812285
 C         1.970745         0.483683         0.453132
 O         2.882888         0.484229         1.352140
 H         3.621684        -1.718420        -4.407633
 H         2.522933        -2.566752        -3.272050
 H         1.902885        -1.813094        -4.658830
 H         2.871616         1.851781        -3.528631
 H         2.002201         0.930978        -4.976747
 H         0.168720         0.349361        -3.449632
 H         3.065302         1.565339        -1.013912
 H         4.190164        -0.403286        -1.819917
 H         2.910939        -1.385895        -1.263169
 H         0.884723         0.424847         0.572814
