19
Iteration:   877charge 0 multiplicity 1
 C         2.440723        -1.687124        -3.938704
 C         2.496292        -0.423541        -3.137918
 C         2.323682         0.975755        -3.821754
 C         1.232518         0.366940        -3.018799
 O         1.046182         0.902734        -1.710950
 C         2.268819         0.670713        -1.002769
 C         3.130456        -0.379832        -1.814934
 C         1.960806         0.374319         0.424812
 O         2.799605         0.547858         1.328685
 H         1.555946        -2.246440        -4.001570
 H         2.568818        -1.422130        -4.947494
 H         3.242482        -2.463766        -3.598676
 H         2.939296         1.589845        -3.159283
 H         2.042256         1.170944        -4.934438
 H         0.270696        -0.103236        -3.443408
 H         2.834640         1.587063        -1.042439
 H         4.221614         0.052966        -1.831325
 H         3.272177        -1.439297        -1.362572
 H         0.906220         0.044489         0.819649
