19
Iteration:  4132
 C         2.574419        -1.622489        -4.021448
 C         2.367051        -0.443472        -3.147569
 C         2.311639         0.934996        -3.843589
 C         1.147173         0.327268        -2.990929
 O         1.041474         0.874645        -1.670607
 C         2.296197         0.688846        -1.028432
 C         2.968732        -0.424273        -1.690131
 C         2.029525         0.441509         0.423567
 O         2.928435         0.554075         1.286638
 H         3.695771        -1.712643        -4.303073
 H         2.333038        -2.523931        -3.443522
 H         2.014809        -1.551234        -4.938185
 H         2.899379         1.817083        -3.380899
 H         2.068059         0.920239        -4.924064
 H         0.134248         0.003973        -3.406809
 H         2.776439         1.685941        -1.148349
 H         4.069344        -0.229803        -1.600906
 H         2.714252        -1.342933        -1.120209
 H         1.067985        -0.010504         0.654040
