19
Iteration:   811charge 0 multiplicity 1
 C         2.543056        -1.727471        -3.984633
 C         2.442911        -0.471896        -3.181148
 C         2.454629         0.992247        -3.815905
 C         1.194651         0.508130        -3.134712
 O         0.945006         0.912862        -1.694460
 C         2.180596         0.685357        -0.970380
 C         2.929736        -0.440955        -1.713437
 C         2.126633         0.226425         0.498037
 O         2.830582         0.689219         1.327399
 H         2.531956        -2.589751        -3.392244
 H         1.655438        -1.586356        -4.532816
 H         3.434723        -1.965103        -4.711537
 H         3.048135         1.779525        -3.287684
 H         2.568473         0.989413        -4.932807
 H         0.356057         0.105886        -3.704689
 H         2.821996         1.565700        -0.920782
 H         4.097522        -0.300418        -1.733938
 H         2.802915        -1.538248        -1.256427
 H         1.425806        -0.600667         0.635991
