19
Iteration:  1417
 C         2.684375        -1.788042        -3.739938
 C         2.414514        -0.365558        -3.067853
 C         2.136844         0.872939        -4.003461
 C         1.129175         0.338524        -2.945635
 O         1.021163         1.057904        -1.683834
 C         2.295903         0.900875        -1.018286
 C         3.117953        -0.178493        -1.773507
 C         2.035560         0.276872         0.358606
 O         2.844199         0.265175         1.204249
 H         3.610705        -1.826835        -4.230141
 H         2.599892        -2.660101        -3.023400
 H         1.933471        -1.904147        -4.549566
 H         2.492270         1.851391        -3.631445
 H         1.932254         0.710856        -5.156119
 H         0.208185        -0.064458        -3.187534
 H         2.733973         1.858699        -0.874206
 H         4.179946         0.150455        -1.925314
 H         3.300720        -1.145627        -1.134267
 H         1.016406        -0.080974         0.325356
