19
Iteration:  1429
 C         2.654685        -1.802716        -3.794959
 C         2.408703        -0.449586        -3.149745
 C         2.038232         0.907881        -3.946173
 C         1.115609         0.360125        -2.917918
 O         1.112437         1.072587        -1.720488
 C         2.289347         0.840611        -0.969229
 C         3.275397        -0.193781        -1.858891
 C         1.913347         0.316247         0.395731
 O         2.804509         0.305800         1.275611
 H         3.659525        -1.713004        -4.209051
 H         2.771053        -2.563663        -2.993526
 H         1.970276        -2.199119        -4.512857
 H         2.718564         1.848823        -3.776789
 H         1.807890         0.766101        -5.057676
 H         0.143981        -0.012898        -3.195584
 H         2.892067         1.736298        -0.864275
 H         4.197681         0.386187        -2.094662
 H         3.451601        -1.132087        -1.275909
 H         0.994434        -0.171855         0.651822
