19
Iteration:  1516charge 0 multiplicity 1
 C         2.539775        -1.693201        -3.671479
 C         2.383489        -0.397044        -3.115813
 C         2.029892         0.853710        -3.907160
 C         1.040300         0.345482        -2.880061
 O         1.171435         1.042781        -1.684543
 C         2.506153         0.791991        -1.064168
 C         3.359718        -0.109043        -1.940061
 C         2.212182         0.002228         0.240563
 O         2.444529         0.514950         1.315111
 H         3.542849        -1.777368        -4.106562
 H         2.340841        -2.492118        -2.900554
 H         1.915875        -1.810223        -4.538666
 H         2.543549         1.815518        -3.457321
 H         1.776267         0.717993        -4.933326
 H        -0.032871         0.031084        -3.002929
 H         2.895607         1.721116        -0.739489
 H         4.386057         0.257016        -2.292016
 H         3.688478        -1.087697        -1.396049
 H         1.845323        -1.076940        -0.003392
