19
Iteration:  1837
 C         2.691855        -1.672339        -4.037170
 C         2.453603        -0.434297        -3.140558
 C         2.342081         0.977173        -3.774960
 C         1.159919         0.385769        -3.035761
 O         0.859940         0.672839        -1.660525
 C         2.164287         0.614500        -1.026435
 C         2.939306        -0.419181        -1.758283
 C         2.052905         0.692354         0.551226
 O         2.993456         0.499208         1.258666
 H         3.850863        -1.780612        -4.250179
 H         2.429502        -2.628271        -3.551640
 H         2.225386        -1.619483        -5.100448
 H         2.764049         2.005625        -3.566999
 H         2.273848         0.972360        -4.858355
 H         0.172207         0.152727        -3.516700
 H         2.639508         1.601768        -1.181392
 H         4.015072        -0.117431        -1.800634
 H         2.936358        -1.435126        -1.331982
 H         1.014529         1.100046         0.917651
