19
Iteration:  1983
 C         2.536976        -1.758873        -3.814011
 C         2.490020        -0.405410        -3.132780
 C         2.093449         0.844536        -3.997631
 C         1.143250         0.372911        -2.851022
 O         1.074272         0.882624        -1.608330
 C         2.392703         0.955610        -1.038660
 C         3.263318        -0.147039        -1.870587
 C         2.164063         0.244970         0.292687
 O         2.588495         0.430234         1.365341
 H         3.535287        -1.940579        -4.239609
 H         2.056036        -2.562806        -3.217710
 H         1.872090        -1.825881        -4.713243
 H         2.690512         1.840768        -3.896374
 H         1.862262         0.671743        -5.001348
 H         0.198311        -0.034156        -3.247906
 H         2.850795         1.957973        -0.928432
 H         4.299340         0.035045        -2.106376
 H         3.252424        -1.117225        -1.301259
 H         1.395785        -0.564261         0.154603
