19
Iteration:  4244charge 0 multiplicity 1
 C         2.443377        -1.696407        -3.901940
 C         2.443643        -0.395432        -3.177939
 C         2.138812         0.942827        -3.958355
 C         1.113054         0.374331        -3.034985
 O         1.152663         0.897576        -1.650447
 C         2.496618         0.714784        -1.091010
 C         3.134995        -0.389756        -1.778130
 C         2.227362         0.330308         0.338815
 O         2.601578         0.587117         1.551118
 H         3.369055        -1.781777        -4.504400
 H         2.256755        -2.592931        -3.281371
 H         1.777071        -1.723554        -4.797082
 H         2.625951         1.871203        -3.682273
 H         2.025647         0.960253        -5.056450
 H         0.220744        -0.080754        -3.257075
 H         2.968359         1.699500        -1.118921
 H         4.138084        -0.050386        -1.659754
 H         2.833410        -1.391470        -1.300362
 H         1.369574        -0.483468         0.162056
