19
Iteration:  4451charge 0 multiplicity 1
 C         2.576234        -1.779069        -3.943181
 C         2.445210        -0.400024        -3.125959
 C         2.172590         0.954133        -3.832805
 C         1.136165         0.380306        -2.940822
 O         1.151003         1.002155        -1.654413
 C         2.355400         0.718810        -1.067543
 C         3.050255        -0.432051        -1.754760
 C         1.970897         0.422428         0.334866
 O         2.814937         0.496293         1.300411
 H         3.582422        -1.735012        -4.425828
 H         2.578381        -2.546085        -3.171201
 H         1.899752        -2.098627        -4.790149
 H         2.591055         1.969704        -3.501442
 H         2.117291         1.112172        -4.933992
 H         0.180435        -0.251939        -3.186615
 H         2.937125         1.691207        -1.180939
 H         4.110872        -0.407167        -1.768271
 H         2.756534        -1.424006        -1.399183
 H         0.939299         0.090177         0.647361
