19
Iteration:  1828charge 0 multiplicity 1
 C         2.727598        -1.586726        -4.023772
 C         2.392824        -0.467010        -3.109646
 C         2.334246         0.915006        -3.793584
 C         1.114127         0.390215        -3.023626
 O         0.821174         0.672580        -1.685848
 C         2.205189         0.729605        -1.056364
 C         2.997826        -0.483368        -1.673241
 C         2.068671         0.681425         0.463536
 O         3.002138         0.469277         1.269281
 H         3.857272        -1.593649        -4.191719
 H         2.421633        -2.560056        -3.701847
 H         2.150082        -1.245926        -4.991937
 H         2.874797         1.811332        -3.510110
 H         2.270936         0.799174        -4.967363
 H         0.232884         0.170561        -3.619348
 H         2.596787         1.667722        -1.328944
 H         4.057970        -0.201531        -1.650686
 H         2.799226        -1.400751        -1.080468
 H         1.102026         0.864866         0.972728
