19
Iteration:  4803
 C         2.440772        -1.779499        -3.948340
 C         2.437863        -0.409840        -3.148170
 C         2.130956         0.896620        -3.886214
 C         1.128485         0.324102        -2.920405
 O         1.247169         1.096812        -1.789235
 C         2.404431         0.709422        -0.995167
 C         3.267926        -0.321304        -1.807390
 C         2.010571         0.187260         0.448978
 O         2.642370         0.577187         1.376836
 H         3.288856        -1.793704        -4.597581
 H         2.376005        -2.659577        -3.280939
 H         1.625430        -1.668970        -4.646054
 H         2.628875         1.830905        -3.585362
 H         2.135742         0.668950        -5.015452
 H         0.084514        -0.013799        -3.331465
 H         2.868302         1.667429        -0.818379
 H         4.240724         0.081937        -1.926228
 H         3.304424        -1.154508        -1.092195
 H         0.991587        -0.273203         0.634588
