19
Iteration:  2360
 C         2.675343        -1.747476        -3.651888
 C         2.457024        -0.398037        -3.153777
 C         2.171798         0.950783        -4.003714
 C         1.096313         0.314718        -3.013031
 O         0.985492         0.984732        -1.747109
 C         2.207560         0.792142        -1.106819
 C         3.120444        -0.196499        -1.799946
 C         2.029649         0.482871         0.439693
 O         2.904868         0.188716         1.317980
 H         3.659099        -1.884689        -3.932186
 H         2.639357        -2.559503        -2.908493
 H         1.936072        -1.960378        -4.465216
 H         2.790252         1.742242        -3.588458
 H         2.049348         0.787124        -5.199918
 H         0.114877        -0.124548        -3.381775
 H         2.815697         1.731078        -1.007482
 H         4.129083         0.272065        -1.889572
 H         3.096788        -1.147152        -1.421510
 H         1.050029         0.723407         0.791644
