19
Iteration:  2359charge 0 multiplicity 1
 C         2.672821        -1.740460        -3.653879
 C         2.465417        -0.409178        -3.153389
 C         2.172547         0.950171        -4.015044
 C         1.097382         0.316536        -3.004852
 O         0.985029         0.991757        -1.743558
 C         2.200107         0.797823        -1.095270
 C         3.124998        -0.197616        -1.802257
 C         2.026278         0.474870         0.423531
 O         2.906055         0.191141         1.312641
 H         3.650349        -1.864843        -3.937058
 H         2.624370        -2.609590        -2.902501
 H         1.917473        -1.975524        -4.459456
 H         2.750338         1.779504        -3.596760
 H         2.069219         0.757505        -5.198628
 H         0.119504        -0.117380        -3.376261
 H         2.804362         1.733337        -0.979913
 H         4.159022         0.272017        -1.857263
 H         3.112276        -1.161508        -1.348344
 H         1.045322         0.691865         0.820741
