19
Iteration:  3639
 C         2.652228        -1.641147        -4.053912
 C         2.433661        -0.383042        -3.245106
 C         2.262891         1.031347        -3.803157
 C         1.123562         0.363605        -3.028255
 O         0.949998         0.603256        -1.587099
 C         2.252770         0.663190        -0.985920
 C         2.989208        -0.547376        -1.850870
 C         2.068802         0.543150         0.530219
 O         2.908039         0.717027         1.379841
 H         3.801392        -1.834012        -4.074482
 H         2.192704        -2.566949        -3.715586
 H         2.394460        -1.391250        -5.099103
 H         2.879779         1.800457        -3.526349
 H         1.984021         0.938236        -4.895734
 H         0.227124         0.437117        -3.593294
 H         2.896659         1.545825        -1.190191
 H         4.082250        -0.231994        -1.950347
 H         2.995375        -1.582786        -1.442446
 H         1.042128         0.145383         0.720561
