19
Iteration:  3236
 C         2.824943        -1.815394        -3.534709
 C         2.378500        -0.426437        -3.107158
 C         2.066745         0.799441        -3.913862
 C         1.038108         0.267813        -2.904182
 O         1.035392         1.053925        -1.702336
 C         2.316084         1.102269        -1.055366
 C         3.183183         0.102600        -1.920860
 C         1.987875         0.532743         0.381726
 O         2.798828        -0.212017         1.045708
 H         3.541405        -1.666417        -4.411537
 H         3.174860        -2.439928        -2.638843
 H         1.894476        -2.341946        -3.855591
 H         2.545835         1.687593        -3.657690
 H         1.886163         0.768272        -5.050656
 H         0.071493        -0.293365        -2.990739
 H         2.570076         2.242189        -0.948893
 H         4.266937         0.517013        -2.232968
 H         3.622323        -0.821132        -1.294302
 H         1.153618         0.846218         0.888303
