19
Iteration:  2068
 C         2.563177        -1.809559        -3.671898
 C         2.366370        -0.348180        -3.174818
 C         2.005848         0.842095        -4.011469
 C         1.121003         0.352231        -2.926929
 O         1.130625         1.071829        -1.699545
 C         2.521833         0.854454        -1.113879
 C         3.294007        -0.112961        -1.934947
 C         2.184709         0.171651         0.321287
 O         2.505075         0.373316         1.494991
 H         3.552380        -1.801548        -4.286004
 H         2.571470        -2.385695        -2.774214
 H         1.947330        -2.259999        -4.545823
 H         2.544633         1.835225        -3.774535
 H         1.683104         0.725207        -4.983105
 H         0.144873        -0.071321        -3.151663
 H         2.900422         1.925860        -0.835507
 H         4.294996         0.149345        -2.283410
 H         3.423903        -1.055586        -1.295745
 H         1.699090        -0.830213         0.021602
