19
Iteration:  1456
 C         2.545928        -1.722477        -3.840720
 C         2.438641        -0.410072        -3.166510
 C         2.047383         0.802519        -4.111077
 C         1.132221         0.293952        -2.895854
 O         1.190210         1.036942        -1.670939
 C         2.400438         0.728133        -0.979373
 C         3.303631        -0.099680        -1.978397
 C         2.027146         0.289648         0.471415
 O         2.611885         0.368349         1.483440
 H         3.519649        -1.650432        -4.424708
 H         2.675592        -2.575533        -3.173808
 H         1.634106        -1.896438        -4.505900
 H         2.417349         1.802859        -3.980125
 H         2.024358         0.641715        -5.171407
 H         0.132500        -0.189497        -3.026298
 H         3.058011         1.650350        -0.804254
 H         3.975408         0.622232        -2.364067
 H         3.733505        -0.945648        -1.473677
 H         0.875635         0.211090         0.600490
