19
Iteration:  2560charge 0 multiplicity 1
 C         2.506767        -1.783532        -3.758583
 C         2.487918        -0.349040        -3.095637
 C         2.281071         0.841846        -3.999142
 C         1.172899         0.357903        -2.990380
 O         0.924830         0.872995        -1.682500
 C         2.195573         0.880762        -1.044005
 C         3.211466        -0.098226        -1.757969
 C         2.039928         0.382491         0.406217
 O         2.893462         0.256628         1.253208
 H         3.587751        -2.192793        -3.928305
 H         1.986917        -2.370713        -3.034703
 H         1.880324        -1.859929        -4.658120
 H         2.732698         1.816095        -3.734420
 H         2.084438         0.958284        -5.115430
 H         0.251003         0.047144        -3.515303
 H         2.684392         1.857526        -1.138534
 H         4.167253         0.338252        -1.854405
 H         3.400299        -1.073499        -1.261205
 H         1.011153         0.353324         0.644416
