19
Iteration:  2428
 C         2.578721        -1.643403        -3.979132
 C         2.498138        -0.433511        -3.031932
 C         2.200062         0.937044        -3.805425
 C         1.081987         0.119886        -2.982643
 O         0.987501         0.764555        -1.658879
 C         2.288186         0.907763        -1.093467
 C         3.208678        -0.316587        -1.637952
 C         2.088724         0.866521         0.419047
 O         2.767517         0.162910         1.131978
 H         3.597953        -2.076703        -4.240960
 H         2.112451        -2.527425        -3.670177
 H         2.041490        -1.295986        -4.849927
 H         2.381120         1.901323        -3.230656
 H         2.462668         0.846281        -4.819637
 H         0.300803        -0.398067        -3.483364
 H         2.711414         1.827996        -1.517056
 H         4.239821        -0.055340        -1.760441
 H         2.951788        -1.113794        -0.929809
 H         1.408713         1.525494         0.930223
