19
Iteration:  1913charge 0 multiplicity 1
 C         2.579068        -1.704537        -4.053596
 C         2.453879        -0.515745        -3.133160
 C         2.260088         0.881662        -3.872760
 C         1.189976         0.328785        -2.967392
 O         0.964282         0.910612        -1.653174
 C         2.202906         0.788112        -0.949386
 C         3.132244        -0.269260        -1.762974
 C         2.047805         0.331380         0.456324
 O         2.858410         0.580596         1.311229
 H         3.654415        -1.750982        -4.434958
 H         2.147575        -2.624220        -3.727171
 H         2.000892        -1.598224        -5.013315
 H         2.804911         1.769882        -3.644781
 H         2.056358         0.748950        -4.961831
 H         0.239621        -0.073908        -3.325501
 H         2.660913         1.835064        -0.785844
 H         4.189586         0.084402        -1.810860
 H         3.192679        -1.250821        -1.242639
 H         1.122836        -0.337205         0.482118
