19
Iteration:  2072
 C         2.574523        -1.819941        -3.699229
 C         2.383091        -0.403688        -3.178755
 C         2.015257         0.844809        -3.984084
 C         1.124873         0.353850        -2.905913
 O         1.149440         1.080226        -1.706912
 C         2.514848         0.897740        -1.085497
 C         3.261637        -0.100600        -1.941793
 C         2.196651         0.174754         0.270176
 O         2.499007         0.362343         1.498484
 H         3.496590        -1.770892        -4.179098
 H         2.506607        -2.486682        -2.795631
 H         1.870037        -2.168985        -4.399417
 H         2.438041         1.727363        -3.627681
 H         1.702140         0.863393        -5.062957
 H         0.136067        -0.129748        -3.092001
 H         2.832061         1.902748        -1.062828
 H         4.265976         0.256393        -2.147904
 H         3.443196        -1.050496        -1.417454
 H         1.703151        -0.837456         0.086310
