19
Iteration:  3980
 C         2.608520        -1.717115        -3.778638
 C         2.440412        -0.380385        -3.127658
 C         2.160560         0.921328        -3.970574
 C         1.160283         0.320831        -3.014808
 O         1.032698         0.966741        -1.672936
 C         2.234279         0.894033        -1.067906
 C         3.054923        -0.252078        -1.743476
 C         2.021133         0.354181         0.423141
 O         2.935793         0.288191         1.254999
 H         3.676861        -2.006822        -3.602929
 H         1.951810        -2.411014        -3.273431
 H         2.302106        -1.755217        -4.801915
 H         2.856315         1.797886        -3.910354
 H         2.087283         0.735983        -5.041114
 H         0.182090         0.058538        -3.281084
 H         2.837786         1.792990        -1.049569
 H         4.146793        -0.116313        -1.876773
 H         2.936569        -1.163277        -1.155527
 H         0.992507         0.041099         0.698099
