19
Iteration:  3451
 C         2.682126        -1.771632        -3.596989
 C         2.418858        -0.368272        -3.134135
 C         1.991428         0.858439        -3.994389
 C         1.090253         0.318062        -3.017667
 O         1.041084         0.984246        -1.729152
 C         2.364457         0.851664        -1.031009
 C         3.281775         0.000449        -1.930368
 C         2.032079         0.410688         0.447523
 O         2.763829         0.064604         1.304603
 H         3.769903        -1.681347        -3.803746
 H         2.738413        -2.626885        -2.948748
 H         2.135698        -2.074684        -4.574960
 H         2.475296         1.861826        -3.779923
 H         1.811606         0.642299        -5.033171
 H         0.147061        -0.219456        -3.222644
 H         2.655068         1.933871        -1.070754
 H         3.994384         0.787373        -2.198662
 H         3.763761        -0.866910        -1.532710
 H         0.920273         0.599057         0.702976
