19
Iteration:  1327
 C         2.550527        -1.725480        -3.917621
 C         2.459403        -0.389215        -3.207664
 C         2.302643         0.955229        -3.832171
 C         1.140273         0.423360        -3.003675
 O         0.940691         0.719907        -1.657401
 C         2.249243         0.726791        -1.054337
 C         3.074797        -0.261041        -1.772242
 C         2.076394         0.501107         0.417582
 O         2.915100         0.445192         1.314520
 H         3.486594        -2.135544        -4.051082
 H         1.972302        -2.482465        -3.362970
 H         2.154649        -1.706560        -5.004328
 H         2.966326         1.732572        -3.386882
 H         2.219042         0.849644        -4.851972
 H         0.099573         0.172635        -3.470283
 H         2.639249         1.705526        -1.158788
 H         4.147227        -0.124122        -1.763545
 H         3.029519        -1.266585        -1.203269
 H         0.981080         0.582789         0.842076
