19
Iteration:  2468
 C         2.816404        -1.685505        -3.903388
 C         2.441877        -0.407663        -3.174778
 C         2.197073         0.894067        -3.939846
 C         1.057740         0.370791        -2.956260
 O         0.870941         0.786001        -1.579041
 C         2.346879         0.767646        -1.106148
 C         3.025622        -0.357847        -1.796265
 C         2.169181         0.881684         0.471656
 O         2.783704         0.155328         1.281789
 H         3.815018        -1.593210        -4.212150
 H         2.565838        -2.608283        -3.239550
 H         2.074507        -1.930587        -4.749426
 H         2.829670         1.841998        -3.786812
 H         2.023675         0.632490        -5.039886
 H         0.044738        -0.012471        -3.129099
 H         2.789864         1.756717        -1.396961
 H         4.153896        -0.292054        -1.624787
 H         2.831989        -1.274934        -1.306621
 H         1.358166         1.590648         0.765858
