19
Iteration:  1074charge 0 multiplicity 1
 C         2.637353        -1.695318        -3.961738
 C         2.399887        -0.440538        -3.038988
 C         2.244103         0.772564        -3.931816
 C         1.136537         0.354221        -2.970807
 O         0.943157         1.011832        -1.722167
 C         2.305445         0.904908        -1.024970
 C         3.065488        -0.261483        -1.736332
 C         2.089916         0.432845         0.454471
 O         2.883094         0.267614         1.309853
 H         3.315510        -1.448705        -4.700353
 H         2.963766        -2.507951        -3.337292
 H         1.804786        -2.022454        -4.649923
 H         2.819628         1.764767        -3.790871
 H         1.863990         0.522898        -4.913967
 H         0.211028         0.130270        -3.338021
 H         2.729595         1.927740        -1.152649
 H         4.163082        -0.122401        -1.822839
 H         2.934738        -1.085668        -1.131295
 H         1.055075         0.303232         0.622336
