19
Iteration:  2916
 C         2.610313        -1.686198        -3.941842
 C         2.469824        -0.378887        -3.133753
 C         2.222940         1.150391        -3.817743
 C         1.154476         0.413756        -3.080581
 O         0.905265         0.645365        -1.718417
 C         2.174118         0.617199        -1.037066
 C         3.044280        -0.487647        -1.759491
 C         2.064155         0.497523         0.552626
 O         3.008514         0.596353         1.254703
 H         3.760368        -1.981702        -3.832915
 H         2.016806        -2.555528        -3.512307
 H         2.363086        -1.481369        -5.033704
 H         2.801664         2.020410        -3.413056
 H         2.134045         1.175728        -4.860052
 H         0.300124        -0.115627        -3.460917
 H         2.624831         1.672877        -1.067984
 H         4.091056        -0.026588        -1.622811
 H         2.923686        -1.561410        -1.347547
 H         1.108012         0.211486         0.843721
