19
Iteration:  3478charge 0 multiplicity 1
 C         2.551258        -1.700753        -3.774554
 C         2.588943        -0.307469        -3.172767
 C         1.956807         0.784834        -4.021099
 C         1.217618         0.184670        -2.911648
 O         1.062592         0.960973        -1.694146
 C         2.333396         0.942362        -0.957488
 C         3.318203         0.008491        -1.833746
 C         1.914047         0.390838         0.416176
 O         2.797334         0.147828         1.244639
 H         3.662829        -2.004029        -3.897848
 H         2.135575        -2.497602        -3.040539
 H         2.020351        -1.726695        -4.703886
 H         2.345103         1.732720        -3.854614
 H         1.767473         0.542136        -5.110056
 H         0.331056        -0.416002        -3.061407
 H         2.597200         2.004311        -0.875132
 H         4.332623         0.454304        -1.883755
 H         3.346515        -0.981000        -1.295332
 H         0.769528         0.252785         0.633700
