19
Iteration:  2032
 C         2.476023        -1.742817        -3.820745
 C         2.474566        -0.391030        -3.187635
 C         2.060984         0.819378        -4.068085
 C         1.176992         0.337574        -2.875799
 O         1.177362         1.039883        -1.645907
 C         2.366183         0.711951        -0.940419
 C         3.322852        -0.014209        -1.896872
 C         2.026898         0.062488         0.359872
 O         2.601912         0.544932         1.371127
 H         3.565009        -1.954710        -4.014818
 H         2.323950        -2.618756        -3.129692
 H         1.708351        -1.946236        -4.602728
 H         2.632426         1.708966        -4.048114
 H         1.506395         0.579075        -5.097542
 H         0.277582        -0.168510        -3.153065
 H         3.042054         1.548300        -0.558259
 H         4.200963         0.639559        -2.238040
 H         3.677776        -0.907501        -1.397803
 H         1.365308        -0.883151         0.457690
