19
Iteration:  4658
 C         2.453857        -1.755879        -3.944316
 C         2.396970        -0.444367        -3.158928
 C         2.263746         0.938849        -3.941219
 C         1.184577         0.394569        -3.015126
 O         1.034274         0.895171        -1.733583
 C         2.399354         0.812074        -1.032143
 C         3.176803        -0.332226        -1.821926
 C         2.076011         0.382939         0.435402
 O         2.749971         0.486807         1.507833
 H         3.491343        -1.820313        -4.370421
 H         2.334420        -2.505350        -3.226966
 H         1.768660        -1.968639        -4.794715
 H         2.744111         1.843154        -3.663678
 H         2.070096         0.715723        -4.949572
 H         0.217832         0.150552        -3.342992
 H         2.847191         1.787642        -1.101637
 H         4.250361        -0.312873        -1.850376
 H         2.908018        -1.258822        -1.282140
 H         1.030960         0.052045         0.600673
