19
Iteration:  2762
 C         2.403709        -1.730787        -3.986699
 C         2.406648        -0.456155        -3.111671
 C         2.239629         0.937896        -3.813481
 C         1.154380         0.310056        -2.971613
 O         1.054697         0.860996        -1.552262
 C         2.382149         0.766398        -1.008891
 C         3.304553        -0.260888        -1.838301
 C         2.218551         0.169962         0.323878
 O         2.553987         0.716654         1.330678
 H         3.409811        -2.181916        -4.211167
 H         1.833905        -2.521239        -3.553530
 H         2.184290        -1.308539        -4.947404
 H         2.706716         1.819708        -3.552986
 H         1.871777         0.811388        -4.858486
 H         0.180506         0.021500        -3.443424
 H         2.789209         1.802719        -1.008555
 H         4.296844         0.255804        -2.160191
 H         3.583602        -1.272699        -1.436199
 H         1.706761        -0.757637         0.272223
