19
Iteration:  2045
 C         2.578598        -1.740706        -3.686832
 C         2.424526        -0.317078        -3.182146
 C         2.011860         0.754099        -4.126025
 C         1.173405         0.442389        -2.925291
 O         1.198410         1.005047        -1.616736
 C         2.424743         0.716739        -0.953863
 C         3.243987        -0.099707        -1.934971
 C         2.118071         0.091302         0.367351
 O         2.550781         0.493875         1.375807
 H         3.496564        -1.861570        -4.381117
 H         2.354293        -2.394332        -2.866060
 H         1.834804        -1.851817        -4.589290
 H         2.525655         1.755754        -4.106610
 H         1.598843         0.491994        -5.109983
 H         0.180317         0.069027        -3.029713
 H         2.789580         1.817783        -0.756761
 H         4.201169         0.484471        -2.026952
 H         3.591190        -1.105034        -1.573548
 H         1.362550        -0.804892         0.264436
