19
Iteration:  2346charge 0 multiplicity 1
 C         2.644158        -1.791468        -3.737062
 C         2.455281        -0.339261        -3.084921
 C         2.160816         0.831774        -3.988437
 C         1.169660         0.342734        -3.007475
 O         0.986325         1.018318        -1.746140
 C         2.243143         0.853465        -0.965573
 C         3.162952        -0.168422        -1.748382
 C         1.983874         0.411184         0.444869
 O         2.891935         0.218934         1.173213
 H         3.624725        -1.889262        -4.213740
 H         2.468191        -2.511007        -2.826256
 H         1.950806        -1.990580        -4.586976
 H         2.477583         1.896804        -3.895656
 H         2.039269         0.627735        -5.055256
 H         0.216782        -0.070251        -3.308267
 H         2.643305         1.876119        -0.931555
 H         4.245764         0.174654        -1.824033
 H         3.197524        -1.141930        -1.125892
 H         0.872909         0.291623         0.634208
