19
Iteration:  4852
 C         2.478381        -1.790451        -3.822004
 C         2.347544        -0.426769        -3.151217
 C         2.246582         0.863814        -3.947440
 C         1.144520         0.515959        -3.066873
 O         1.114594         0.922041        -1.615994
 C         2.447320         0.835555        -1.003117
 C         3.178827        -0.318121        -1.882235
 C         2.108970         0.258367         0.331896
 O         2.631753         0.516994         1.441610
 H         3.539885        -1.898561        -4.191421
 H         2.276728        -2.552504        -3.068058
 H         1.738212        -1.705119        -4.648509
 H         2.805380         1.774111        -3.717560
 H         1.938350         0.709757        -4.955486
 H         0.203880         0.236379        -3.387687
 H         3.004771         1.836659        -1.130128
 H         4.295741        -0.074731        -2.016954
 H         3.011048        -1.156644        -1.206736
 H         1.440719        -0.705508         0.272898
