19
Iteration:  2671
 C         2.533709        -1.780828        -3.887815
 C         2.411829        -0.360695        -3.088879
 C         2.070947         0.821306        -3.955362
 C         1.117147         0.340533        -2.937341
 O         1.162005         1.019001        -1.681543
 C         2.358447         0.742857        -0.974933
 C         3.313881        -0.188554        -1.867693
 C         2.023513         0.341638         0.390454
 O         2.663033         0.433785         1.364770
 H         3.392755        -1.646990        -4.571817
 H         2.780757        -2.621286        -3.336169
 H         1.796185        -1.947716        -4.624763
 H         2.786160         1.650467        -3.776940
 H         1.712594         0.628725        -4.953257
 H         0.144569        -0.005156        -3.230263
 H         3.015880         1.624226        -0.834397
 H         4.263006         0.290808        -2.091512
 H         3.543112        -1.170227        -1.414584
 H         1.032394        -0.293970         0.429628
