19
Iteration:  4422
 C         2.462633        -1.644352        -3.914884
 C         2.440822        -0.468789        -3.063248
 C         2.243556         0.833878        -3.937282
 C         1.121703         0.388746        -2.986382
 O         1.093149         0.966346        -1.722384
 C         2.325304         0.830915        -1.050102
 C         3.127933        -0.288588        -1.747978
 C         2.118576         0.277357         0.424030
 O         2.766778         0.514597         1.376734
 H         3.466339        -1.652699        -4.334909
 H         2.232117        -2.651401        -3.425924
 H         1.758086        -1.613587        -4.810689
 H         2.881448         1.598973        -3.691991
 H         2.117039         0.781492        -5.011134
 H         0.241953        -0.113863        -3.439133
 H         2.806042         1.775084        -1.112760
 H         4.200327        -0.474839        -1.808920
 H         2.856108        -1.306109        -1.215054
 H         1.222416        -0.434944         0.359968
