19
Iteration:  3747charge 0 multiplicity 1
 C         2.558137        -1.683967        -3.975101
 C         2.423306        -0.340253        -3.238080
 C         2.229582         1.030008        -3.923806
 C         1.176099         0.379070        -3.020772
 O         1.021130         0.677043        -1.623064
 C         2.426189         0.672554        -0.986375
 C         3.114195        -0.426428        -1.876939
 C         2.137852         0.279671         0.442265
 O         2.685733         0.776815         1.476022
 H         3.425440        -2.176757        -4.455595
 H         2.193203        -2.467016        -3.313638
 H         1.683395        -1.622191        -4.654849
 H         2.735028         1.929812        -3.456511
 H         2.002096         1.351199        -4.909070
 H         0.225315         0.086819        -3.500974
 H         2.960025         1.599743        -1.026450
 H         4.211595        -0.404023        -2.074824
 H         2.896201        -1.363874        -1.383421
 H         1.200078        -0.375099         0.742318
