19
Iteration:  4828
 C         2.428123        -1.725679        -3.898821
 C         2.427369        -0.391505        -3.213358
 C         2.220825         0.823222        -3.996603
 C         1.197442         0.342550        -2.916163
 O         1.173306         1.011977        -1.647017
 C         2.405315         0.831034        -1.008204
 C         3.150239        -0.351716        -1.814967
 C         2.158528         0.317962         0.349837
 O         2.576149         0.488373         1.439965
 H         3.353079        -1.722804        -4.449638
 H         2.478881        -2.538885        -3.145436
 H         1.624875        -1.784521        -4.598514
 H         2.827079         1.755882        -3.781306
 H         1.777063         0.747626        -5.000689
 H         0.253406        -0.051776        -3.222618
 H         2.988334         1.822024        -1.108785
 H         4.230070        -0.012095        -1.767196
 H         2.991343        -1.227487        -1.203229
 H         1.255889        -0.395339         0.237363
