19
Iteration:    16
 C         2.796290        -1.826417        -3.753067
 C         2.471433        -0.393337        -3.122102
 C         2.181569         0.933707        -3.883131
 C         1.099991         0.398145        -2.996023
 O         0.891726         0.862185        -1.623428
 C         2.228973         0.940424        -1.051492
 C         3.097327        -0.200305        -1.713886
 C         1.958821         0.573355         0.358796
 O         2.911880         0.149022         1.105946
 H         2.684421        -2.768819        -3.207863
 H         2.389869        -1.800136        -4.928350
 H         3.952705        -1.863813        -3.893166
 H         2.892976         1.674267        -3.488888
 H         2.265377         0.953021        -4.998158
 H         0.108830         0.082016        -3.325539
 H         2.564296         1.945101        -1.248762
 H         4.207585        -0.003301        -1.464849
 H         2.688512        -1.178334        -1.235790
 H         0.994256         0.409171         0.658711
