19
Iteration:  3150
 C         2.724120        -1.773444        -3.647051
 C         2.499953        -0.415225        -3.042611
 C         2.004793         0.790475        -3.837053
 C         1.084019         0.230512        -2.868239
 O         0.960969         1.097519        -1.723059
 C         2.231724         0.929601        -1.046135
 C         3.351855         0.094024        -1.839250
 C         2.051572         0.498596         0.342452
 O         2.824596        -0.084134         1.010883
 H         3.635411        -2.285498        -3.505856
 H         2.059800        -2.573087        -3.247255
 H         2.402523        -1.636411        -4.673847
 H         2.394890         1.790227        -3.706142
 H         1.700544         0.546214        -4.869223
 H         0.185797        -0.336360        -3.143437
 H         2.666188         1.886008        -0.818571
 H         3.992425         0.794973        -2.170995
 H         3.692431        -0.676127        -1.183648
 H         0.951146         0.751107         0.619263
