19
Iteration:  2039
 C         2.524527        -1.732767        -3.759454
 C         2.445412        -0.321103        -3.202824
 C         2.026822         0.746520        -4.116818
 C         1.205766         0.420623        -2.890582
 O         1.195546         1.009870        -1.621068
 C         2.399192         0.688562        -0.966424
 C         3.260024        -0.047881        -1.891261
 C         2.056917         0.086985         0.349801
 O         2.585320         0.525300         1.378707
 H         3.496571        -1.958645        -4.149311
 H         2.412306        -2.551567        -2.990947
 H         1.841693        -1.884952        -4.532448
 H         2.542472         1.692706        -4.000270
 H         1.535759         0.570681        -5.063626
 H         0.217660        -0.069904        -3.111200
 H         2.904714         1.517419        -0.551890
 H         4.104560         0.563131        -2.137158
 H         3.590982        -0.984091        -1.444942
 H         1.459079        -0.796134         0.255347
