19
Iteration:  3741
 C         2.560996        -1.718493        -3.988209
 C         2.415963        -0.414524        -3.266816
 C         2.260281         1.059013        -3.902390
 C         1.150463         0.373131        -3.041274
 O         0.971699         0.697951        -1.618377
 C         2.402424         0.679663        -0.980007
 C         3.129457        -0.420683        -1.846249
 C         2.189280         0.291735         0.502003
 O         2.689317         0.784222         1.464133
 H         3.434275        -1.865561        -4.699845
 H         2.202116        -2.644503        -3.467113
 H         1.775945        -1.609955        -4.757019
 H         2.929507         1.749569        -3.398221
 H         1.959993         1.416257        -4.930324
 H         0.147130         0.153887        -3.452181
 H         2.939453         1.679737        -0.974751
 H         4.228081        -0.298862        -1.893341
 H         2.846603        -1.436117        -1.455257
 H         1.278625        -0.310632         0.443647
