19
Iteration:  1691charge 0 multiplicity 1
 C         2.518487        -1.646792        -3.759406
 C         2.488911        -0.333976        -3.115452
 C         2.093310         0.874498        -3.918037
 C         1.145745         0.226132        -2.918950
 O         1.115505         0.987025        -1.710346
 C         2.295529         0.754621        -1.015497
 C         3.287554        -0.168914        -1.838627
 C         2.062119         0.143936         0.272568
 O         2.712831         0.507920         1.321628
 H         3.502009        -2.143848        -4.132141
 H         2.009927        -2.482092        -3.094949
 H         1.947444        -1.502672        -4.664096
 H         2.378410         1.854633        -3.741158
 H         1.808740         0.694579        -5.002861
 H         0.251446        -0.300466        -3.184211
 H         2.766260         1.715443        -0.795914
 H         4.176999         0.439715        -2.061921
 H         3.542068        -1.023025        -1.172919
 H         1.290764        -0.617171         0.252435
