19
Iteration:   859charge 0 multiplicity 1
 C         2.399449        -1.739574        -3.933175
 C         2.510112        -0.402872        -3.182140
 C         2.454025         1.054319        -3.760285
 C         1.174271         0.441954        -2.999853
 O         0.973854         0.767870        -1.676934
 C         2.277703         0.698526        -1.019248
 C         3.130372        -0.355875        -1.771576
 C         1.984294         0.304578         0.385532
 O         2.813212         0.602607         1.260960
 H         1.586042        -2.329745        -3.370269
 H         2.384348        -1.702607        -5.087047
 H         3.179569        -2.416204        -3.587235
 H         2.946151         1.942543        -3.320604
 H         2.466773         0.910257        -4.842109
 H         0.317828         0.346852        -3.633524
 H         2.684245         1.763048        -0.984029
 H         4.196883        -0.139599        -1.776034
 H         3.065908        -1.363517        -1.309043
 H         1.041792        -0.206121         0.593989
