19
Iteration:  3240
 C         2.793150        -1.823898        -3.573652
 C         2.397864        -0.427221        -3.072919
 C         2.058610         0.782411        -3.930810
 C         1.043033         0.265546        -2.877583
 O         1.033516         1.063914        -1.710643
 C         2.288943         1.112274        -1.041824
 C         3.235121         0.101221        -1.890183
 C         2.017064         0.515103         0.380360
 O         2.792398        -0.204622         1.024242
 H         3.557926        -1.639016        -4.299274
 H         3.284927        -2.435613        -2.778582
 H         1.913087        -2.336207        -3.922776
 H         2.644369         1.738379        -3.784639
 H         1.830018         0.747769        -4.979831
 H         0.116988        -0.306138        -2.983695
 H         2.486963         2.152568        -0.903536
 H         4.121561         0.490750        -2.234068
 H         3.424511        -0.707260        -1.204417
 H         1.021754         0.965381         0.800896
