19
Iteration:   410charge 0 multiplicity 1
 C         2.501950        -1.734346        -3.778368
 C         2.456404        -0.449689        -3.088316
 C         2.333951         0.956728        -3.790840
 C         1.210996         0.399575        -3.140631
 O         0.981167         0.851951        -1.745552
 C         2.217570         0.849402        -1.087953
 C         3.161573        -0.281986        -1.775544
 C         1.956635         0.458230         0.473443
 O         2.869009         0.336863         1.257533
 H         2.147504        -2.634286        -3.162382
 H         1.969641        -1.600353        -4.802439
 H         3.498593        -2.048230        -3.988882
 H         2.827795         1.817520        -3.349994
 H         2.205902         0.867638        -4.829952
 H         0.170261         0.105451        -3.523421
 H         2.831350         1.818439        -1.152891
 H         4.261471        -0.066604        -1.878169
 H         3.094120        -1.302442        -1.316092
 H         0.947249         0.385607         0.729243
