19
Iteration:  2339charge 0 multiplicity 1
 C         2.622515        -1.775560        -3.776861
 C         2.478760        -0.346167        -3.057210
 C         2.166527         0.788853        -3.951505
 C         1.146381         0.354672        -2.998340
 O         1.021524         1.002498        -1.756441
 C         2.285317         0.905452        -0.971033
 C         3.167084        -0.116146        -1.675285
 C         1.878801         0.401441         0.430190
 O         2.924242         0.215278         1.143633
 H         3.605057        -1.994927        -4.136829
 H         2.516490        -2.512353        -3.022546
 H         1.849523        -1.882715        -4.558983
 H         2.647115         1.748586        -3.869896
 H         1.786828         0.442925        -5.017647
 H         0.219017        -0.188456        -3.344429
 H         2.771314         1.909381        -0.910799
 H         4.159011         0.240798        -1.930265
 H         3.143459        -1.079764        -1.348710
 H         0.855204         0.025183         0.603764
