19
Iteration:  3018
 C         2.707953        -1.767425        -3.790672
 C         2.454556        -0.350794        -3.163858
 C         2.056168         0.918920        -3.970902
 C         1.082720         0.406861        -3.000797
 O         1.002702         0.802414        -1.687636
 C         2.317417         0.833640        -0.984635
 C         3.195882        -0.123631        -1.776286
 C         2.002304         0.473267         0.438197
 O         2.871318         0.222635         1.252557
 H         3.666520        -1.892733        -4.328125
 H         2.689452        -2.522410        -2.915696
 H         1.896069        -1.906658        -4.562970
 H         2.498577         1.918917        -3.675355
 H         1.960431         0.726085        -5.051794
 H         0.104924         0.004565        -3.276930
 H         2.782252         1.860034        -0.885276
 H         4.198266         0.193706        -1.950268
 H         3.214693        -1.219921        -1.407281
 H         0.827331         0.481761         0.662230
