19
Iteration:   915charge 0 multiplicity 1
 C         2.666862        -1.678688        -3.992764
 C         2.478516        -0.438812        -3.196325
 C         2.136659         0.805950        -3.986328
 C         1.130426         0.399802        -2.927861
 O         1.090571         1.003721        -1.665895
 C         2.393058         0.819592        -1.035355
 C         3.023659        -0.402745        -1.771457
 C         2.025714         0.464029         0.450160
 O         2.762932         0.380558         1.474890
 H         1.606090        -2.099437        -4.318174
 H         3.219384        -1.373454        -4.996410
 H         3.378012        -2.304784        -3.588058
 H         2.798276         1.646209        -3.911418
 H         1.901634         0.726954        -4.989315
 H         0.205749        -0.000720        -3.227350
 H         3.016683         1.774912        -1.085382
 H         4.064547        -0.328045        -1.641437
 H         2.663632        -1.356115        -1.360461
 H         0.858608         0.280766         0.366263
