19
Iteration:  1249charge 0 multiplicity 1
 C         2.694044        -1.654536        -4.172537
 C         2.306437        -0.468503        -3.225220
 C         2.222273         0.945012        -3.824082
 C         1.138894         0.379170        -3.035981
 O         1.049496         0.800330        -1.604659
 C         2.342441         0.678788        -1.000320
 C         2.970242        -0.533243        -1.730797
 C         2.087840         0.485136         0.515463
 O         2.868551         0.679920         1.395745
 H         3.633388        -1.527429        -4.655266
 H         2.875711        -2.581559        -3.630351
 H         1.833236        -1.972802        -4.846599
 H         2.835115         1.739323        -3.486341
 H         2.029979         1.028899        -4.926103
 H         0.044119         0.299931        -3.373806
 H         2.904481         1.639407        -1.144715
 H         4.068191        -0.399107        -1.760735
 H         2.578696        -1.460886        -1.224737
 H         0.990092         0.313247         0.742588
