19
Iteration:   145charge 0 multiplicity 1
 C         2.543669        -1.653828        -4.169228
 C         2.491178        -0.414373        -3.256761
 C         2.289240         0.999779        -3.911040
 C         1.190452         0.312185        -2.959730
 O         1.072563         0.814775        -1.576465
 C         2.372495         0.583002        -0.942158
 C         3.110319        -0.488803        -1.852976
 C         2.012286         0.299784         0.541474
 O         2.647720         0.881684         1.424703
 H         2.338692        -2.474153        -3.498362
 H         1.789977        -1.792646        -4.988003
 H         3.520344        -1.749903        -4.588232
 H         2.727110         1.952780        -3.501088
 H         2.148162         0.734305        -4.963250
 H         0.129552         0.080097        -3.201426
 H         3.066576         1.501391        -0.977111
 H         4.215059        -0.483105        -1.882267
 H         2.888530        -1.475436        -1.502015
 H         1.159343        -0.333613         0.805393
