19
Iteration:   848
 C         2.429258        -1.759863        -3.841033
 C         2.462528        -0.356825        -3.142421
 C         2.459825         1.048304        -3.799073
 C         1.268386         0.510710        -3.093177
 O         0.952966         0.683987        -1.659637
 C         2.246734         0.756751        -1.024974
 C         3.045128        -0.391784        -1.754945
 C         2.063903         0.281509         0.398758
 O         2.800195         0.610610         1.256701
 H         1.513143        -2.377345        -3.555292
 H         2.060361        -1.591129        -4.920475
 H         3.395022        -2.249834        -3.970647
 H         3.237502         1.680686        -3.362179
 H         2.357511         1.214886        -4.894460
 H         0.302055         0.325530        -3.546462
 H         2.770624         1.765251        -1.121059
 H         4.089361        -0.092200        -1.765002
 H         2.919333        -1.349777        -1.221525
 H         1.220212        -0.362261         0.549682
