19
Iteration:  2625
 C         2.552312        -1.703132        -3.739029
 C         2.438203        -0.406006        -3.095393
 C         2.161711         0.806028        -3.991091
 C         1.205315         0.339640        -2.962523
 O         1.033774         1.013678        -1.728258
 C         2.275450         0.971425        -1.024440
 C         3.202778        -0.191628        -1.724692
 C         2.019470         0.262885         0.320567
 O         2.836303         0.309769         1.280186
 H         3.433645        -2.022296        -4.156668
 H         2.190490        -2.452626        -3.088316
 H         1.970636        -1.701853        -4.640029
 H         2.547876         1.790269        -3.803862
 H         1.807263         0.587373        -5.092052
 H         0.192125        -0.043579        -3.213639
 H         2.675168         1.970333        -0.943061
 H         4.175310         0.196618        -1.801864
 H         3.298863        -1.147059        -1.188974
 H         1.154068        -0.557044         0.357708
