19
Iteration:  4290
 C         2.545472        -1.706261        -4.018610
 C         2.348170        -0.465517        -3.060943
 C         2.125949         0.848394        -3.971027
 C         1.163199         0.392467        -2.889317
 O         1.219498         1.093190        -1.647584
 C         2.414317         0.645828        -0.981625
 C         3.197401        -0.384147        -1.853857
 C         2.051308         0.199632         0.451654
 O         2.630834         0.652574         1.358613
 H         3.392699        -1.722265        -4.647079
 H         2.428150        -2.674143        -3.449502
 H         1.690192        -1.766834        -4.775952
 H         2.722794         1.716440        -3.677934
 H         2.020751         0.785185        -4.996053
 H         0.099840         0.178432        -3.124034
 H         2.926964         1.595144        -0.915477
 H         4.026459         0.202289        -2.224369
 H         3.442686        -1.348664        -1.307548
 H         1.120621        -0.509305         0.298235
