19
Iteration:  2714
 C         2.495536        -1.791187        -3.861424
 C         2.409297        -0.435042        -3.233170
 C         2.043755         0.977530        -4.006305
 C         1.178380         0.406810        -2.949450
 O         1.111284         0.931536        -1.695959
 C         2.447600         0.734520        -1.026718
 C         3.264133        -0.241089        -1.886009
 C         2.155625         0.178714         0.425374
 O         2.584348         0.587320         1.501229
 H         3.468122        -1.979081        -4.282862
 H         2.459736        -2.444953        -3.036816
 H         1.813086        -1.887141        -4.671278
 H         2.714016         1.856476        -3.683634
 H         1.812208         0.836357        -5.046105
 H         0.220559        -0.005610        -3.181873
 H         2.882115         1.731477        -1.044664
 H         4.226101         0.215824        -1.905734
 H         3.436010        -1.189623        -1.280882
 H         1.525137        -0.648808         0.367987
