19
Iteration:   753
 C         2.591251        -1.647928        -4.166514
 C         2.406382        -0.439558        -3.187811
 C         2.227957         0.980859        -3.818538
 C         1.174555         0.328995        -2.998990
 O         1.163113         0.865932        -1.665023
 C         2.454259         0.711082        -1.062856
 C         3.053491        -0.618421        -1.739614
 C         2.033498         0.555212         0.483555
 O         2.641710         0.601412         1.492121
 H         2.469339        -2.566849        -3.528378
 H         1.783179        -1.771245        -4.959896
 H         3.513889        -1.553953        -4.719119
 H         2.921726         1.764143        -3.673159
 H         1.952446         0.852462        -4.848283
 H         0.121654         0.166992        -3.317741
 H         2.935345         1.647531        -1.273092
 H         4.135353        -0.614542        -1.662152
 H         2.608444        -1.550336        -1.184710
 H         1.013245         0.451927         0.494907
