19
Iteration:  3185charge 0 multiplicity 1
 C         2.587638        -1.713747        -3.598538
 C         2.584159        -0.313544        -3.106779
 C         2.080189         0.723685        -4.061016
 C         1.121279         0.207725        -2.932060
 O         1.012954         0.940615        -1.667167
 C         2.276426         1.044050        -0.963352
 C         3.249581         0.166648        -1.826357
 C         2.054601         0.557827         0.477362
 O         2.799871        -0.160215         1.024215
 H         3.519931        -1.935045        -4.055340
 H         2.171089        -2.307183        -2.770743
 H         1.947386        -1.857853        -4.456172
 H         2.407834         1.740740        -4.093645
 H         1.793822         0.246700        -5.060615
 H         0.174934        -0.390825        -3.045213
 H         2.454367         2.092290        -0.957583
 H         4.121056         0.617662        -2.087309
 H         3.659572        -0.553164        -1.203153
 H         0.928895         0.515397         0.799386
