19
Iteration:  3652
 C         2.684427        -1.624921        -4.106648
 C         2.383401        -0.381174        -3.288450
 C         2.277061         1.060459        -3.822939
 C         1.143735         0.366030        -2.979386
 O         0.993835         0.615290        -1.647662
 C         2.269072         0.619509        -1.009668
 C         2.969868        -0.538595        -1.828974
 C         2.080432         0.471802         0.500237
 O         2.909859         0.779747         1.443578
 H         3.793587        -1.931490        -4.062932
 H         2.111784        -2.382313        -3.488157
 H         2.254457        -1.724595        -5.083027
 H         2.774328         1.992716        -3.470227
 H         2.015377         1.232456        -4.823885
 H         0.164512        -0.112937        -3.261487
 H         2.628912         1.676544        -1.227019
 H         4.116734        -0.582199        -1.669487
 H         2.534706        -1.494428        -1.441235
 H         1.080390         0.074339         0.887752
