19
Iteration:  4938
 C         2.476376        -1.782657        -3.919824
 C         2.431479        -0.452910        -3.252409
 C         2.243999         0.998491        -3.917972
 C         1.151927         0.388282        -2.975263
 O         1.063400         0.876571        -1.666607
 C         2.302503         0.856344        -1.065384
 C         3.128423        -0.393133        -1.758660
 C         2.128433         0.431163         0.431907
 O         2.761762         0.469909         1.422708
 H         3.450584        -2.113636        -4.192711
 H         2.082756        -2.503116        -3.229158
 H         1.962025        -1.919084        -4.834460
 H         2.933975         1.715001        -3.481926
 H         2.148624         1.034353        -5.011362
 H         0.245335         0.174002        -3.478739
 H         2.924350         1.822797        -1.234850
 H         4.250293        -0.107958        -1.629707
 H         2.916475        -1.275277        -1.172309
 H         1.149814        -0.171794         0.325387
