19
Iteration:  3570
 C         2.649973        -1.617708        -3.839810
 C         2.478225        -0.343038        -3.145360
 C         2.239051         0.930716        -3.954250
 C         1.211679         0.287117        -2.998297
 O         0.898982         0.797990        -1.636028
 C         2.185856         0.809608        -1.039291
 C         2.986013        -0.273240        -1.735072
 C         2.051348         0.435184         0.458031
 O         2.971429         0.387542         1.222123
 H         3.614650        -1.787360        -4.323110
 H         2.589706        -2.419393        -3.075808
 H         1.896929        -1.928010        -4.648257
 H         2.729753         1.963582        -3.660259
 H         2.186036         0.689599        -5.001235
 H         0.305053         0.003537        -3.573352
 H         2.780758         1.720572        -1.203370
 H         4.030090         0.127972        -1.690958
 H         2.863953        -1.275266        -1.242227
 H         1.075887        -0.066499         0.751720
