19
Iteration:  1335charge 0 multiplicity 1
 C         2.533806        -1.764461        -3.854083
 C         2.428464        -0.419573        -3.162924
 C         2.309414         0.988117        -3.839666
 C         1.144816         0.447396        -3.045171
 O         0.922153         0.758690        -1.647785
 C         2.231491         0.678266        -1.020476
 C         3.113331        -0.263034        -1.787031
 C         2.025523         0.487059         0.457462
 O         2.955776         0.431322         1.253644
 H         3.685880        -2.003091        -3.839547
 H         1.933938        -2.530178        -3.371534
 H         2.239471        -1.711568        -4.937081
 H         2.971668         1.829506        -3.461735
 H         2.265278         1.001160        -4.908149
 H         0.246354         0.151551        -3.681758
 H         2.573348         1.746769        -1.088030
 H         4.105233         0.232244        -1.932897
 H         3.132117        -1.402759        -1.456186
 H         0.982488         0.536109         0.670598
