19
Iteration:  1480
 C         2.470652        -1.731359        -3.899725
 C         2.563420        -0.376755        -3.199108
 C         1.967011         0.737160        -4.017371
 C         1.147814         0.297303        -2.875029
 O         1.214694         0.963536        -1.701568
 C         2.482206         0.895286        -0.988793
 C         3.408869        -0.022839        -1.924959
 C         2.046210         0.229932         0.397521
 O         2.519354         0.382357         1.521767
 H         3.293560        -2.002190        -4.502511
 H         2.279061        -2.617686        -3.190673
 H         1.458879        -1.618254        -4.501070
 H         2.367315         1.637767        -4.104948
 H         1.451358         0.640984        -4.999353
 H         0.217553        -0.095530        -3.108153
 H         2.932841         1.898711        -0.871065
 H         4.350688         0.430125        -2.124485
 H         3.423798        -0.990718        -1.316163
 H         1.077668        -0.417777         0.355264
