19
Iteration:  3522charge 0 multiplicity 1
 C         2.695787        -1.707366        -3.753712
 C         2.384823        -0.388094        -3.110781
 C         2.211606         0.845647        -3.891434
 C         1.039030         0.280719        -2.919150
 O         0.981693         0.968505        -1.728892
 C         2.229848         0.883882        -1.010678
 C         3.187621        -0.106865        -1.901729
 C         2.004780         0.391789         0.394906
 O         2.894277         0.244779         1.257269
 H         3.764088        -1.822039        -4.095476
 H         2.673255        -2.724650        -3.219417
 H         2.144509        -1.830314        -4.655890
 H         2.704864         1.692743        -3.513219
 H         1.940683         0.903673        -4.991495
 H         0.175168        -0.348122        -3.134909
 H         2.739037         1.867047        -0.961258
 H         4.186049         0.281471        -2.153687
 H         3.270100        -1.145076        -1.477456
 H         0.966541         0.058162         0.719653
