19
Iteration:   663charge 0 multiplicity 1
 C         2.578901        -1.824018        -3.679002
 C         2.474881        -0.400058        -3.055058
 C         2.476697         0.956843        -3.778191
 C         1.192137         0.503531        -3.111312
 O         0.869512         0.886597        -1.782400
 C         2.081958         0.898915        -1.062890
 C         2.951301        -0.283427        -1.692295
 C         2.044905         0.392123         0.371506
 O         3.027303         0.300937         1.152337
 H         1.859929        -2.702204        -3.398158
 H         2.211429        -1.718911        -4.821412
 H         3.607318        -2.021378        -3.759132
 H         2.966048         1.921169        -3.378459
 H         2.250895         1.054706        -4.847415
 H         0.381281         0.261458        -3.794890
 H         2.741243         1.785436        -1.068068
 H         4.026495        -0.201516        -1.474837
 H         2.636107        -1.317508        -1.193949
 H         0.989200        -0.246259         0.559657
