19
Iteration:  3295
 C         2.706845        -1.772340        -3.580634
 C         2.591144        -0.349782        -3.100615
 C         1.901382         0.791307        -4.023562
 C         1.106339         0.156395        -2.863286
 O         1.056707         1.067847        -1.766054
 C         2.355118         1.049172        -1.048629
 C         3.262369         0.116217        -1.803476
 C         2.030114         0.565722         0.389788
 O         2.729082        -0.223121         1.120083
 H         3.649768        -2.046347        -4.114432
 H         2.465333        -2.543496        -2.778381
 H         2.035521        -1.876970        -4.505640
 H         2.153318         1.914186        -3.800799
 H         1.613606         0.549923        -5.020057
 H         0.228496        -0.484764        -2.935132
 H         2.665355         2.111632        -1.065650
 H         4.093206         0.741948        -2.006714
 H         3.623918        -0.726261        -1.151362
 H         1.086209         0.889523         0.730150
