19
Iteration:  2505charge 0 multiplicity 1
 C         2.733960        -1.753876        -3.900363
 C         2.405117        -0.419667        -3.093199
 C         2.153201         0.860854        -3.861794
 C         1.067469         0.298488        -2.954557
 O         0.976924         0.952033        -1.720109
 C         2.298803         0.815637        -1.027241
 C         3.090924        -0.293914        -1.792331
 C         2.057407         0.707034         0.473040
 O         2.849500         0.196611         1.245363
 H         3.756910        -1.729487        -4.483604
 H         2.805365        -2.564094        -3.190130
 H         2.081342        -1.966623        -4.737645
 H         2.684029         1.787880        -3.439862
 H         2.182209         0.864402        -4.961431
 H         0.162975        -0.161345        -3.358856
 H         2.845228         1.740679        -1.284339
 H         4.114725        -0.019863        -1.912168
 H         3.048336        -1.301868        -1.332569
 H         1.033476         1.132379         0.836449
