19
Iteration:  1105charge 0 multiplicity 1
 C         2.666182        -1.663967        -3.979137
 C         2.411201        -0.421132        -3.125953
 C         2.081295         0.859022        -3.865879
 C         1.068714         0.263361        -2.928174
 O         1.099474         1.037447        -1.756634
 C         2.351944         0.696759        -0.971541
 C         3.165640        -0.360718        -1.735023
 C         1.946116         0.468059         0.441549
 O         2.879680         0.406738         1.289168
 H         3.841726        -1.809066        -4.253542
 H         2.283421        -2.606766        -3.569595
 H         2.165378        -1.656968        -4.966259
 H         2.379178         1.987691        -3.727571
 H         1.938646         0.877646        -4.927558
 H         0.124277         0.029170        -3.262847
 H         2.988849         1.666253        -0.896660
 H         4.255782        -0.228560        -1.875437
 H         2.870293        -1.278433        -1.259276
 H         0.822462         0.556640         0.850925
