19
Iteration:  2919
 C         2.602135        -1.672254        -3.967292
 C         2.476954        -0.393281        -3.134773
 C         2.213660         1.121346        -3.794253
 C         1.144563         0.386055        -3.046492
 O         0.905789         0.654314        -1.734427
 C         2.180507         0.661652        -1.005902
 C         3.061930        -0.477104        -1.765808
 C         2.068960         0.520990         0.540946
 O         3.011714         0.575155         1.245762
 H         3.632840        -1.972059        -3.776811
 H         2.031905        -2.544775        -3.482233
 H         2.473211        -1.474245        -5.062222
 H         2.726635         1.928891        -3.301752
 H         2.310523         1.186583        -4.942964
 H         0.260902        -0.091614        -3.522041
 H         2.575554         1.714387        -1.019109
 H         4.024959        -0.046404        -1.699704
 H         2.942305        -1.543991        -1.299811
 H         0.983217         0.142495         0.667549
