19
Iteration:  2150charge 0 multiplicity 1
 C         2.549418        -1.918994        -3.665950
 C         2.476109        -0.382717        -3.263964
 C         1.935760         0.887433        -4.105523
 C         1.163969         0.345456        -2.989980
 O         1.195363         1.146167        -1.710437
 C         2.366009         0.839851        -0.973800
 C         3.355055        -0.040808        -1.975229
 C         2.097217         0.138133         0.366708
 O         2.566471         0.352550         1.560406
 H         3.500261        -2.101563        -4.091439
 H         2.503907        -2.651576        -2.791882
 H         1.753625        -2.103085        -4.357599
 H         2.577092         1.830495        -3.871677
 H         1.522291         0.874050        -5.169029
 H         0.280123        -0.232525        -3.146215
 H         2.678590         1.876615        -0.769605
 H         4.266462         0.549953        -2.297386
 H         3.649228        -0.989288        -1.567028
 H         1.379893        -0.702465         0.421028
