19
Iteration:  4219
 C         2.420230        -1.727113        -3.978682
 C         2.413907        -0.488695        -3.160654
 C         2.294181         0.889337        -3.866424
 C         1.245716         0.369830        -2.944500
 O         1.060662         0.913991        -1.610576
 C         2.295022         0.784593        -0.969153
 C         3.127916        -0.316513        -1.894608
 C         2.153779         0.242098         0.398497
 O         2.693076         0.661849         1.381371
 H         3.418523        -2.014282        -4.435219
 H         1.881863        -2.559181        -3.571182
 H         1.948718        -1.478857        -4.890727
 H         3.006248         1.686629        -3.637086
 H         2.133918         0.898226        -5.038239
 H         0.204360         0.056754        -3.300375
 H         2.867997         1.716068        -0.707076
 H         4.126927         0.171149        -2.079970
 H         3.144483        -1.323572        -1.444830
 H         1.420970        -0.658352         0.430198
