19
Iteration:  2632
 C         2.523348        -1.710712        -3.799880
 C         2.492862        -0.424256        -3.090619
 C         2.172562         0.797078        -3.996910
 C         1.120226         0.295232        -2.933943
 O         1.070465         1.030123        -1.750627
 C         2.281562         0.939173        -0.993641
 C         3.180201        -0.140164        -1.705842
 C         2.077643         0.283302         0.347524
 O         2.794874         0.307811         1.268347
 H         3.570481        -1.872916        -4.208174
 H         2.115282        -2.607586        -3.179004
 H         1.753422        -1.644670        -4.629654
 H         2.544439         1.854885        -3.887623
 H         2.028634         0.653115        -5.049555
 H         0.174459        -0.220457        -3.123649
 H         2.658261         1.978091        -0.878005
 H         4.281443         0.141047        -1.778746
 H         3.198809        -0.966408        -0.986653
 H         1.276846        -0.453532         0.177471
