19
Iteration:  2615
 C         2.566813        -1.780830        -3.683266
 C         2.473033        -0.336758        -3.063141
 C         2.158148         0.871595        -3.973046
 C         1.160123         0.411905        -2.988434
 O         1.002110         0.991873        -1.704125
 C         2.254565         0.878969        -1.017628
 C         3.191582        -0.170805        -1.826657
 C         2.046873         0.238592         0.373232
 O         2.832409         0.320888         1.234422
 H         3.661608        -2.035622        -3.791507
 H         2.233078        -2.479693        -2.982532
 H         1.995216        -1.904338        -4.574257
 H         2.817118         1.691570        -3.844231
 H         1.799679         0.553229        -5.038695
 H         0.262133         0.056330        -3.534951
 H         2.909192         1.742197        -0.988931
 H         4.154177         0.236006        -1.945515
 H         3.216152        -1.211022        -1.433155
 H         1.010398        -0.257578         0.457633
