19
Iteration:  3238
 C         2.807524        -1.820500        -3.557983
 C         2.387979        -0.429021        -3.090711
 C         2.064740         0.791674        -3.919710
 C         1.039354         0.266979        -2.889948
 O         1.036117         1.059533        -1.706802
 C         2.301282         1.110853        -1.047568
 C         3.210533         0.102860        -1.906717
 C         1.997680         0.524966         0.379667
 O         2.798036        -0.210003         1.036052
 H         3.552325        -1.639018        -4.348523
 H         3.244563        -2.456430        -2.694628
 H         1.905275        -2.330295        -3.880314
 H         2.597346         1.705077        -3.740058
 H         1.856846         0.767400        -5.027567
 H         0.084528        -0.316502        -2.976033
 H         2.510193         2.202277        -0.919994
 H         4.187930         0.493942        -2.232561
 H         3.523395        -0.776426        -1.236681
 H         1.103161         0.908909         0.832109
