19
Iteration:   357charge 0 multiplicity 1
 C         2.465075        -1.685627        -3.989409
 C         2.453629        -0.419402        -3.194889
 C         2.201213         0.894562        -3.985547
 C         1.159415         0.387813        -3.020944
 O         1.170760         0.926809        -1.709001
 C         2.435601         0.661622        -0.950155
 C         3.242265        -0.346397        -1.789443
 C         2.051447         0.240182         0.448727
 O         2.561429         0.678959         1.505143
 H         1.961165        -2.457663        -3.471954
 H         1.749029        -1.695642        -4.885628
 H         3.533165        -1.926119        -4.320063
 H         2.720917         1.830526        -3.741331
 H         1.994471         0.656510        -5.003773
 H         0.044914         0.163618        -3.132331
 H         3.022702         1.607050        -0.867092
 H         4.253883        -0.033147        -1.995230
 H         3.355824        -1.320413        -1.457983
 H         1.170125        -0.557557         0.586609
