19
Iteration:  4405
 C         2.429633        -1.770740        -3.969468
 C         2.389106        -0.423757        -3.159191
 C         2.344731         0.815088        -3.970233
 C         1.187567         0.388403        -3.020876
 O         1.037233         0.965807        -1.657402
 C         2.309232         0.813584        -0.963643
 C         3.106866        -0.263259        -1.788956
 C         2.140710         0.253350         0.467728
 O         2.748856         0.542622         1.395209
 H         3.452192        -1.989310        -4.388449
 H         1.980685        -2.542846        -3.380654
 H         1.847120        -1.688625        -4.852968
 H         2.908897         1.839759        -3.795137
 H         2.176175         0.679661        -5.059224
 H         0.185498         0.210080        -3.378122
 H         2.820927         1.824597        -0.752426
 H         4.047660         0.336391        -1.884502
 H         3.297968        -1.207241        -1.336312
 H         1.434606        -0.602470         0.547216
