19
Iteration:  1829charge 0 multiplicity 1
 C         2.725517        -1.599203        -4.027680
 C         2.400367        -0.465522        -3.113017
 C         2.337251         0.923423        -3.788302
 C         1.118407         0.392979        -3.023173
 O         0.822001         0.671291        -1.683946
 C         2.205673         0.713884        -1.057465
 C         2.989727        -0.477120        -1.683691
 C         2.070830         0.682190         0.481454
 O         2.995374         0.474435         1.265024
 H         3.810085        -1.623031        -4.181874
 H         2.447060        -2.564502        -3.683454
 H         2.162813        -1.268484        -4.983952
 H         2.834154         1.828532        -3.557885
 H         2.292878         0.834590        -4.984026
 H         0.248587         0.179586        -3.586832
 H         2.591557         1.668308        -1.303052
 H         4.030938        -0.180314        -1.675899
 H         2.820067        -1.409639        -1.107283
 H         1.132824         0.886774         0.974467
