19
Iteration:   250charge 0 multiplicity 1
 C         2.221780        -1.635736        -4.111239
 C         2.503422        -0.398289        -3.277571
 C         2.242173         1.014325        -3.864773
 C         1.293736         0.322376        -2.881715
 O         1.198392         0.725373        -1.527865
 C         2.557087         0.485018        -0.933117
 C         3.402104        -0.423438        -1.952915
 C         2.205454         0.147498         0.548590
 O         2.186602         1.059795         1.331661
 H         1.816346        -2.395306        -3.566017
 H         1.670317        -1.330140        -4.960736
 H         3.162573        -2.089948        -4.461775
 H         2.943888         1.877442        -3.799172
 H         1.791899         1.029475        -4.843096
 H         0.229774         0.099375        -3.160646
 H         3.028788         1.431756        -0.805659
 H         4.417652        -0.089609        -2.163702
 H         3.389889        -1.518278        -1.543708
 H         1.895875        -0.961807         0.787952
