19
Iteration:  3854
 C         2.544765        -1.729237        -3.702028
 C         2.419808        -0.380596        -3.188056
 C         2.094052         0.963304        -4.021082
 C         1.207206         0.384301        -2.971755
 O         1.101810         0.978589        -1.662900
 C         2.427706         0.762841        -1.023544
 C         3.193369        -0.238583        -1.865945
 C         2.057342         0.149675         0.395770
 O         2.673429         0.488100         1.291823
 H         3.575967        -1.845335        -3.945726
 H         2.246572        -2.316474        -2.820820
 H         1.907936        -1.873176        -4.611186
 H         2.641415         1.868510        -3.614431
 H         1.656575         0.873528        -4.942996
 H         0.279795        -0.134023        -3.333017
 H         3.087626         1.651731        -0.833258
 H         4.239135         0.005590        -1.883854
 H         3.062738        -1.212736        -1.353789
 H         1.192435        -0.675196         0.453206
