19
Iteration:   669
 C         2.540774        -1.816743        -3.753688
 C         2.481353        -0.427722        -3.092732
 C         2.466837         0.995079        -3.771224
 C         1.229407         0.469790        -3.070704
 O         0.841596         0.856698        -1.770074
 C         2.156937         0.918078        -1.055342
 C         2.917606        -0.283307        -1.686528
 C         2.031701         0.392865         0.381755
 O         3.005593         0.314486         1.164556
 H         1.947876        -2.592251        -3.298621
 H         2.273632        -1.634524        -4.748019
 H         3.598186        -2.293794        -3.649470
 H         3.037912         1.793482        -3.358084
 H         2.364758         0.963859        -4.850555
 H         0.445017         0.249175        -3.782456
 H         2.642474         1.927208        -1.112826
 H         3.999903        -0.103222        -1.552583
 H         2.753795        -1.207234        -1.217612
 H         1.110102        -0.077404         0.495134
