19
Iteration:  2994
 C         2.701110        -1.683506        -3.791440
 C         2.463033        -0.325334        -3.219621
 C         2.070759         0.991381        -3.937672
 C         1.169912         0.245460        -2.999002
 O         0.960615         0.925126        -1.718012
 C         2.179930         0.713453        -1.049697
 C         3.109853        -0.247926        -1.826512
 C         2.081928         0.454738         0.526227
 O         2.923070         0.306657         1.321515
 H         3.835127        -1.862592        -3.817165
 H         2.425242        -2.335274        -2.909692
 H         2.273342        -1.840724        -4.842877
 H         2.614673         1.824061        -3.625454
 H         1.850248         0.813141        -5.051809
 H         0.255119        -0.278888        -3.358279
 H         2.844750         1.613497        -0.931488
 H         4.108579         0.138336        -1.962374
 H         3.085664        -1.389621        -1.687804
 H         0.874645         0.570353         0.764137
