19
Iteration:  3774
 C         2.449142        -1.671077        -3.914407
 C         2.500534        -0.324925        -3.192775
 C         2.135111         1.001506        -3.921207
 C         1.188337         0.325116        -2.921048
 O         1.077288         0.822758        -1.627849
 C         2.372153         0.640243        -0.994643
 C         3.272845        -0.382106        -1.801724
 C         2.105626         0.226320         0.373475
 O         2.644276         0.706788         1.322733
 H         3.441651        -2.157822        -4.095217
 H         1.816742        -2.514546        -3.514541
 H         2.022873        -1.353917        -4.861203
 H         2.786888         1.800216        -3.693004
 H         1.755021         1.099668        -4.983741
 H         0.254283        -0.054537        -3.310298
 H         2.983419         1.583539        -0.959053
 H         4.325044        -0.083045        -1.680789
 H         3.232656        -1.440192        -1.424309
 H         1.176302        -0.383243         0.537914
