19
Iteration:  3861charge 0 multiplicity 1
 C         2.487528        -1.763385        -3.668018
 C         2.478517        -0.290808        -3.159368
 C         2.103379         0.981270        -3.918505
 C         1.189910         0.350969        -2.991510
 O         1.115994         0.992866        -1.696640
 C         2.393947         0.760198        -1.018379
 C         3.230918        -0.276251        -1.911250
 C         1.981478         0.142739         0.351733
 O         2.721254         0.492617         1.335277
 H         3.530371        -1.751787        -4.077027
 H         2.349520        -2.596098        -2.930787
 H         1.822889        -2.020984        -4.497177
 H         2.446562         1.963435        -3.789226
 H         1.740752         0.834321        -5.023700
 H         0.392557        -0.195820        -3.407042
 H         2.829486         1.762765        -0.847120
 H         4.290729        -0.003077        -2.055427
 H         3.274495        -1.324394        -1.505368
 H         1.164835        -0.541173         0.361837
