19
Iteration:  2734
 C         2.415105        -1.701827        -3.907107
 C         2.449966        -0.408436        -3.134433
 C         2.209929         0.855136        -3.876994
 C         1.125802         0.249674        -2.968279
 O         1.120341         0.935844        -1.631764
 C         2.375125         0.819186        -0.982764
 C         3.243797        -0.176043        -1.851110
 C         2.231929         0.126183         0.314168
 O         2.562721         0.647381         1.385907
 H         3.378980        -1.993130        -4.244016
 H         1.908111        -2.596250        -3.392056
 H         1.831839        -1.426285        -4.857705
 H         2.577027         1.892739        -3.588104
 H         2.025518         0.720784        -4.962793
 H         0.186836        -0.119279        -3.347498
 H         2.770205         1.814501        -0.855260
 H         4.250820         0.144388        -1.972523
 H         3.235929        -1.210691        -1.549081
 H         1.908241        -0.972580         0.251545
