19
Iteration:  3289
 C         2.652654        -1.719921        -3.643303
 C         2.529083        -0.362402        -3.085924
 C         1.930863         0.728670        -4.027210
 C         1.181859         0.107273        -2.837073
 O         1.073814         1.066105        -1.768811
 C         2.338584         1.059129        -1.023220
 C         3.277673         0.164150        -1.784013
 C         2.006045         0.562962         0.428149
 O         2.748375        -0.219167         1.076244
 H         3.696790        -1.828809        -3.962410
 H         2.557310        -2.400530        -2.821721
 H         1.833978        -1.850604        -4.322964
 H         2.137278         1.723577        -3.887648
 H         1.805420         0.528624        -5.135180
 H         0.260592        -0.467745        -2.974515
 H         2.628347         2.119680        -1.064057
 H         4.270103         0.714606        -1.916699
 H         3.360629        -0.800830        -1.258411
 H         0.922027         0.956824         0.746230
