19
Iteration:  3014
 C         2.716107        -1.778544        -3.772016
 C         2.461779        -0.330804        -3.201675
 C         2.056494         0.935453        -3.981471
 C         1.072976         0.413400        -2.994079
 O         0.985471         0.819293        -1.708390
 C         2.325224         0.801016        -0.970571
 C         3.210633        -0.175621        -1.793110
 C         2.013163         0.467832         0.479133
 O         2.866929         0.240039         1.249005
 H         3.718412        -1.965660        -4.248789
 H         2.720837        -2.470858        -2.971228
 H         1.948364        -1.835544        -4.536276
 H         2.349557         1.872508        -3.623362
 H         1.921141         0.770115        -5.072399
 H         0.085929         0.005167        -3.279734
 H         2.732165         1.810917        -0.930417
 H         4.227857         0.260283        -1.915998
 H         3.115364        -1.148706        -1.332822
 H         0.892846         0.493358         0.724679
