19
Iteration:  4346charge 0 multiplicity 1
 C         2.348378        -1.751134        -3.779264
 C         2.510324        -0.360875        -3.173570
 C         2.195429         0.948885        -3.920595
 C         1.182952         0.481273        -2.935412
 O         1.115215         0.856693        -1.655008
 C         2.431385         0.778737        -1.087332
 C         3.240201        -0.288849        -1.855412
 C         2.156376         0.203830         0.352926
 O         2.598691         0.575041         1.366623
 H         3.283950        -2.225685        -3.889734
 H         1.965743        -2.494193        -3.013046
 H         1.779604        -1.774032        -4.753945
 H         2.778246         1.747186        -3.639426
 H         1.810953         0.926433        -4.932012
 H         0.293760         0.019250        -3.517235
 H         2.778701         1.812293        -1.058775
 H         4.354483        -0.268243        -1.794242
 H         2.988387        -1.370449        -1.616596
 H         1.390514        -0.668810         0.278902
