19
Iteration:   721charge 0 multiplicity 1
 C         2.458767        -1.666126        -4.080925
 C         2.462924        -0.406525        -3.190653
 C         2.314456         0.967735        -3.898579
 C         1.182912         0.351944        -3.021846
 O         1.087690         0.823981        -1.677731
 C         2.292604         0.606358        -1.021459
 C         3.168608        -0.463798        -1.736290
 C         1.975459         0.562366         0.470233
 O         2.759601         0.546577         1.463901
 H         1.948064        -2.419667        -3.506582
 H         2.156654        -1.509633        -5.100185
 H         3.507752        -2.115425        -4.127960
 H         2.942473         1.763661        -3.591659
 H         2.129282         0.953488        -4.972064
 H         0.178791         0.070698        -3.478667
 H         2.844995         1.555145        -1.037178
 H         4.213404        -0.101669        -1.683791
 H         3.045165        -1.556078        -1.270896
 H         0.834692         0.748219         0.612981
