19
Iteration:  4615
 C         2.563303        -1.641045        -3.931045
 C         2.409887        -0.444877        -3.063848
 C         2.256163         0.873603        -3.827354
 C         1.090683         0.331378        -3.066007
 O         1.037597         1.026385        -1.748084
 C         2.361078         0.711759        -1.027996
 C         3.091813        -0.454071        -1.637590
 C         2.008752         0.455773         0.476907
 O         2.877399         0.453236         1.213980
 H         3.541882        -1.616129        -4.388516
 H         2.457968        -2.559531        -3.471844
 H         2.001165        -1.664520        -4.868130
 H         2.573365         1.811065        -3.467670
 H         2.153378         0.849873        -4.897414
 H         0.195560        -0.079089        -3.474296
 H         2.884492         1.669154        -0.927252
 H         4.130704        -0.330110        -1.652156
 H         2.820848        -1.406887        -1.221349
 H         0.849628         0.406904         0.499221
