19
Iteration:  2459charge 0 multiplicity 1
 C         2.750926        -1.684301        -3.908925
 C         2.484373        -0.401003        -3.170080
 C         2.181238         0.895008        -3.850419
 C         1.101719         0.261693        -2.928885
 O         0.918422         0.812945        -1.588489
 C         2.263554         0.802933        -1.135412
 C         3.070161        -0.388248        -1.777207
 C         2.163319         0.853110         0.472232
 O         2.768901         0.175024         1.232057
 H         3.760986        -1.750243        -4.353220
 H         2.512315        -2.547010        -3.240912
 H         2.157707        -1.580563        -4.839938
 H         2.655382         1.971113        -3.797132
 H         1.991508         0.757670        -4.928699
 H         0.203029        -0.076580        -3.434975
 H         2.741831         1.801058        -1.341266
 H         4.162843        -0.278599        -1.663302
 H         2.740598        -1.243422        -1.242278
 H         1.512976         1.793933         0.794583
