19
Iteration:  2050
 C         2.597066        -1.729152        -3.683105
 C         2.420772        -0.348812        -3.167865
 C         2.013806         0.816889        -4.125284
 C         1.115611         0.429068        -2.937107
 O         1.187135         1.009873        -1.627741
 C         2.440297         0.789686        -0.952335
 C         3.278836        -0.128994        -1.964507
 C         2.134035         0.060453         0.330894
 O         2.540153         0.480337         1.421732
 H         3.510801        -1.829325        -4.193012
 H         2.400465        -2.445610        -2.839218
 H         1.808326        -1.903522        -4.359160
 H         2.541118         1.742600        -4.235306
 H         1.671774         0.384461        -5.084124
 H         0.061273         0.067486        -3.092886
 H         2.842595         1.751328        -0.902865
 H         4.244665         0.327584        -2.060147
 H         3.516833        -1.138468        -1.619005
 H         1.384079        -0.718533         0.341407
