19
Iteration:     5charge 0 multiplicity 1
 C         2.726562        -1.733846        -3.785076
 C         2.510669        -0.373622        -3.088217
 C         2.160863         0.892183        -3.904852
 C         1.120598         0.304854        -2.957526
 O         0.975218         0.840664        -1.692510
 C         2.195719         0.890674        -1.056820
 C         3.153380        -0.146688        -1.755961
 C         2.005303         0.615956         0.430465
 O         2.810546         0.124084         1.156199
 H         2.435124        -2.629352        -3.232558
 H         2.082529        -1.843253        -4.776669
 H         3.819198        -1.664240        -4.100199
 H         2.742570         1.745982        -3.530003
 H         2.136696         0.766207        -5.011805
 H         0.201370        -0.084158        -3.387848
 H         2.775841         1.821036        -1.093917
 H         4.262609         0.128696        -1.715753
 H         3.144616        -1.132367        -1.180408
 H         0.970474         0.792851         0.683972
