19
Iteration:  3929
 C         2.536700        -1.777123        -3.824468
 C         2.445365        -0.433729        -3.116399
 C         2.200159         0.805642        -3.958125
 C         1.133046         0.395145        -2.970511
 O         1.035305         0.990789        -1.725424
 C         2.364813         0.839776        -0.986310
 C         3.157095        -0.086379        -1.822341
 C         2.066209         0.323406         0.414248
 O         2.776755         0.303466         1.321409
 H         3.482135        -1.620629        -4.298318
 H         2.505433        -2.759710        -3.244891
 H         1.707293        -1.835333        -4.612926
 H         2.710515         1.821022        -3.796509
 H         1.865256         0.737230        -4.944035
 H         0.129051        -0.017961        -3.182709
 H         2.915683         1.812848        -0.791324
 H         4.186993         0.136856        -2.049859
 H         3.288056        -1.058998        -1.242346
 H         1.002233         0.016823         0.456520
