19
Iteration:   987
 C         2.496977        -1.769166        -3.845245
 C         2.499410        -0.427725        -3.092655
 C         2.302876         0.859084        -3.970707
 C         1.147670         0.414129        -3.002554
 O         0.956991         0.860033        -1.722002
 C         2.192258         0.906182        -1.017404
 C         3.139072        -0.090364        -1.706517
 C         1.990038         0.409482         0.457828
 O         2.948522         0.250259         1.261133
 H         2.223323        -1.492916        -4.846160
 H         3.382308        -2.393121        -3.855968
 H         1.680453        -2.536405        -3.365313
 H         3.260636         1.510985        -3.749884
 H         2.289850         0.874944        -5.094907
 H         0.267527         0.178634        -3.545018
 H         2.552839         1.912711        -0.991250
 H         4.197645         0.321980        -1.841987
 H         3.162886        -1.091164        -1.229697
 H         0.901434         0.067725         0.683710
