19
Iteration:   982charge 0 multiplicity 1
 C         2.504551        -1.766257        -3.849536
 C         2.507898        -0.437760        -3.125415
 C         2.307516         0.827370        -3.949435
 C         1.165511         0.430486        -3.000532
 O         0.945572         0.901272        -1.712331
 C         2.200417         0.898740        -1.008002
 C         3.147159        -0.139708        -1.706487
 C         2.016309         0.405020         0.466896
 O         2.911633         0.262485         1.240619
 H         1.983802        -1.580554        -4.862654
 H         3.544778        -2.210920        -3.807285
 H         1.856738        -2.535030        -3.547467
 H         2.953836         1.633102        -3.721300
 H         2.213016         0.836207        -5.048918
 H         0.184794         0.104018        -3.512862
 H         2.682176         1.940902        -0.980294
 H         4.107761         0.288114        -1.794461
 H         3.251467        -1.074644        -1.147831
 H         0.941425         0.101226         0.702204
