19
Iteration:  3642charge 0 multiplicity 1
 C         2.662253        -1.641756        -4.042780
 C         2.426281        -0.357873        -3.278122
 C         2.270266         1.040181        -3.813503
 C         1.120479         0.350313        -3.014078
 O         0.969943         0.594648        -1.600037
 C         2.243710         0.676470        -0.975138
 C         2.976079        -0.591227        -1.855425
 C         2.099218         0.551590         0.537027
 O         2.894147         0.723291         1.387260
 H         3.757385        -1.812549        -4.155783
 H         2.138609        -2.571204        -3.713455
 H         2.436164        -1.480301        -5.076495
 H         2.910619         1.927770        -3.543549
 H         1.957698         0.966037        -4.791104
 H         0.191815         0.367304        -3.629135
 H         2.894492         1.602310        -1.112320
 H         3.980301        -0.183614        -1.960768
 H         2.908691        -1.586522        -1.398002
 H         1.043351         0.092182         0.761025
