19
Iteration:  4946charge 0 multiplicity 1
 C         2.505876        -1.828510        -3.940371
 C         2.368979        -0.426656        -3.182946
 C         2.252214         1.046302        -3.872233
 C         1.155590         0.354934        -3.032376
 O         1.074719         0.907366        -1.671596
 C         2.385486         0.766565        -1.096695
 C         3.077607        -0.372286        -1.720183
 C         2.041002         0.455974         0.415229
 O         2.809064         0.483012         1.394914
 H         3.551956        -1.926462        -4.189827
 H         2.286743        -2.669965        -3.182137
 H         1.880174        -1.862876        -4.810333
 H         3.052218         1.797279        -3.492264
 H         2.086209         1.075371        -4.966445
 H         0.213805         0.071467        -3.378394
 H         2.859091         1.674257        -1.002128
 H         4.128314        -0.100266        -1.866247
 H         2.955570        -1.386845        -1.346219
 H         1.029894        -0.126532         0.480514
