19
Iteration:   910charge 0 multiplicity 1
 C         2.623086        -1.656470        -4.045831
 C         2.495837        -0.433924        -3.184453
 C         2.171601         0.767343        -3.975381
 C         1.101769         0.417605        -2.967597
 O         1.112904         0.988673        -1.654566
 C         2.372797         0.809341        -1.028360
 C         3.034074        -0.373523        -1.762591
 C         2.029177         0.470461         0.466121
 O         2.755551         0.392251         1.473849
 H         1.760424        -2.227524        -4.151221
 H         3.171148        -1.355541        -4.867238
 H         3.355265        -2.450464        -3.579661
 H         2.764917         1.712477        -3.832425
 H         1.800573         0.797728        -5.076031
 H         0.144831        -0.051635        -3.352665
 H         2.957475         1.707642        -1.059232
 H         4.182940        -0.330573        -1.602318
 H         2.689606        -1.400539        -1.409345
 H         0.964534         0.240168         0.469841
