19
Iteration:  3914charge 0 multiplicity 1
 C         2.515573        -1.748868        -3.954791
 C         2.415991        -0.459697        -3.114156
 C         2.217578         0.717303        -3.987831
 C         1.147217         0.403080        -2.960168
 O         1.014265         1.010130        -1.597289
 C         2.294049         0.951407        -1.014601
 C         3.302716        -0.142610        -1.832365
 C         2.027160         0.343647         0.433427
 O         2.762566         0.296975         1.391281
 H         3.411401        -1.940510        -4.661877
 H         2.449979        -2.592925        -3.259351
 H         1.611707        -1.832907        -4.538746
 H         2.946598         1.485049        -3.958373
 H         2.016369         0.470757        -5.131419
 H         0.225089         0.167750        -3.427759
 H         2.699890         1.949088        -1.047894
 H         4.160129         0.569034        -1.958063
 H         3.615416        -0.979806        -1.191730
 H         1.013922        -0.237846         0.310774
