19
Iteration:  3855charge 0 multiplicity 1
 C         2.534414        -1.735602        -3.694136
 C         2.427058        -0.368291        -3.183747
 C         2.091800         0.964188        -4.009367
 C         1.211283         0.380371        -2.977068
 O         1.102398         0.981315        -1.666403
 C         2.426997         0.765353        -1.024154
 C         3.197240        -0.247274        -1.873781
 C         2.046454         0.148599         0.396175
 O         2.678967         0.488428         1.293372
 H         3.584441        -1.802245        -3.965818
 H         2.257733        -2.348253        -2.831909
 H         1.895610        -1.890736        -4.594178
 H         2.625427         1.916084        -3.618939
 H         1.664321         0.863546        -4.918873
 H         0.291103        -0.169303        -3.368808
 H         3.058147         1.661484        -0.834040
 H         4.260105         0.005915        -1.907482
 H         3.091199        -1.215540        -1.383908
 H         1.172119        -0.675035         0.443265
