19
Iteration:  2684charge 0 multiplicity 1
 C         2.585080        -1.724506        -3.857541
 C         2.375580        -0.472197        -3.210791
 C         2.099973         0.860320        -4.034871
 C         1.134007         0.421234        -2.886140
 O         1.165798         0.961989        -1.613410
 C         2.482943         0.713897        -1.006961
 C         3.232912        -0.194776        -1.925692
 C         1.973691         0.226740         0.420333
 O         2.656631         0.504938         1.402673
 H         3.572017        -1.728221        -4.498873
 H         2.686224        -2.439669        -3.029905
 H         1.662341        -2.007979        -4.339527
 H         2.564454         1.871915        -3.917942
 H         1.882054         0.623273        -5.001900
 H         0.147660         0.062467        -3.108317
 H         2.867787         1.764915        -0.866677
 H         4.223262         0.351353        -2.131163
 H         3.462463        -1.208985        -1.464950
 H         0.788573         0.014701         0.418048
