19
Iteration:   879charge 0 multiplicity 1
 C         2.450464        -1.684075        -3.945640
 C         2.497857        -0.439868        -3.134322
 C         2.311060         0.982226        -3.845693
 C         1.213670         0.364426        -3.008552
 O         1.054423         0.907198        -1.719406
 C         2.280131         0.681144        -0.997653
 C         3.120258        -0.386234        -1.808443
 C         1.971262         0.377237         0.443978
 O         2.793123         0.540399         1.332173
 H         1.557424        -2.313426        -3.979212
 H         2.656256        -1.330349        -4.970844
 H         3.195011        -2.480936        -3.617111
 H         2.941695         1.602756        -3.192533
 H         2.066275         1.152034        -4.946068
 H         0.303249        -0.094585        -3.451766
 H         2.841991         1.642309        -1.022179
 H         4.197788         0.051128        -1.848029
 H         3.302154        -1.456276        -1.374503
 H         0.866811         0.073598         0.815780
