19
Iteration:  1715
 C         2.443877        -1.734014        -3.822422
 C         2.477078        -0.412545        -3.134022
 C         2.188628         0.927217        -3.829526
 C         1.184572         0.242623        -2.996210
 O         0.980372         0.829549        -1.659711
 C         2.335741         0.841206        -1.023618
 C         3.309310        -0.070436        -1.874143
 C         1.987383         0.270963         0.351346
 O         2.799334         0.460594         1.300962
 H         3.488235        -2.221496        -4.125623
 H         1.966802        -2.564011        -3.205816
 H         1.961851        -1.560853        -4.763623
 H         2.583401         1.828910        -3.477106
 H         2.202345         0.910644        -4.948594
 H         0.328989        -0.158434        -3.450415
 H         2.692327         1.808983        -0.824209
 H         4.279072         0.451913        -2.106624
 H         3.484778        -0.893562        -1.137122
 H         1.041924        -0.284110         0.385058
