19
Iteration:  3658
 C         2.670598        -1.629769        -4.120290
 C         2.421059        -0.388407        -3.259666
 C         2.243475         1.060571        -3.815609
 C         1.144566         0.356589        -3.001695
 O         0.980269         0.640183        -1.635561
 C         2.291121         0.588355        -1.043934
 C         2.986838        -0.481113        -1.802798
 C         2.107565         0.437931         0.553565
 O         2.885480         0.795039         1.407208
 H         3.705971        -1.913065        -4.049596
 H         2.229131        -2.381856        -3.478005
 H         2.181338        -1.698708        -5.132992
 H         2.732281         1.867424        -3.310670
 H         2.075762         1.252929        -4.951850
 H         0.235952        -0.100300        -3.306769
 H         2.722348         1.557274        -1.231624
 H         3.986647        -0.803572        -1.598944
 H         2.429280        -1.388010        -1.502235
 H         1.096459         0.063095         0.767206
