19
Iteration:   220charge 0 multiplicity 1
 C         2.412337        -1.682240        -4.024701
 C         2.359746        -0.391622        -3.237512
 C         2.288418         1.105242        -3.787903
 C         1.207150         0.424982        -2.894754
 O         1.162857         0.671771        -1.508160
 C         2.575393         0.575697        -1.034828
 C         3.229646        -0.520225        -1.935080
 C         2.280837         0.179076         0.413216
 O         2.242413         1.004683         1.316644
 H         1.894420        -2.685371        -3.483652
 H         1.867267        -1.664532        -4.968677
 H         3.452034        -1.834156        -4.209920
 H         2.994035         1.885316        -3.357555
 H         1.973128         1.029957        -4.827912
 H         0.190604         0.200286        -3.346914
 H         3.098049         1.576183        -1.000934
 H         4.292533        -0.517621        -2.161820
 H         3.074373        -1.478689        -1.448192
 H         2.049389        -0.867597         0.558066
