19
Iteration:   637
 C         2.677728        -1.737451        -3.680985
 C         2.416980        -0.360984        -3.063705
 C         2.415716         0.931918        -3.874982
 C         1.185157         0.420197        -3.045249
 O         0.934952         1.062028        -1.805878
 C         2.167750         0.800398        -0.947596
 C         2.841381        -0.358957        -1.717660
 C         1.972941         0.294409         0.472170
 O         2.994895         0.333556         1.047936
 H         2.214849        -2.542751        -3.048680
 H         2.126231        -2.030600        -4.603151
 H         3.866161        -1.712741        -4.008387
 H         3.030625         1.754576        -3.625704
 H         2.480476         0.668836        -4.935961
 H         0.353995         0.150770        -3.714016
 H         2.925278         1.644745        -0.748603
 H         3.904198        -0.028632        -1.752150
 H         2.801914        -1.252055        -1.239845
 H         0.909099        -0.108425         0.751409
