19
Iteration:   998charge 0 multiplicity 1
 C         2.445518        -1.777355        -3.772290
 C         2.419544        -0.369551        -3.100407
 C         2.386379         0.924716        -3.938552
 C         1.249948         0.362835        -3.076635
 O         0.936681         0.792392        -1.713966
 C         2.176135         0.891197        -0.988088
 C         3.129209        -0.051497        -1.795314
 C         2.047376         0.398012         0.471554
 O         2.928319         0.248912         1.226901
 H         2.427140        -1.643637        -4.832122
 H         3.298960        -2.440563        -3.624860
 H         1.370952        -2.242581        -3.418831
 H         3.211146         1.713225        -3.615424
 H         2.049737         0.647854        -4.957317
 H         0.336914         0.111422        -3.520260
 H         2.501924         1.915100        -1.006809
 H         4.215890         0.302834        -1.817696
 H         3.198382        -0.928283        -1.124123
 H         0.928446         0.098700         0.764644
