19
Iteration:  4476charge 0 multiplicity 1
 C         2.626251        -1.703730        -3.983437
 C         2.370153        -0.433597        -3.162591
 C         2.294856         0.877776        -3.894476
 C         1.119657         0.422879        -3.024831
 O         1.036776         0.909280        -1.697946
 C         2.331501         0.690994        -0.980406
 C         2.996926        -0.421621        -1.773469
 C         2.032099         0.519663         0.480748
 O         2.882041         0.469302         1.385263
 H         3.640564        -1.759113        -4.388290
 H         2.452851        -2.502614        -3.177152
 H         1.922669        -1.916472        -4.872387
 H         2.684990         1.822867        -3.780257
 H         2.062870         0.865964        -4.933716
 H         0.114250         0.322310        -3.443099
 H         2.861967         1.613656        -1.129480
 H         4.018764        -0.113958        -1.990390
 H         2.982327        -1.468843        -1.312868
 H         0.929029         0.392688         0.759928
