19
Iteration:  1990
 C         2.481981        -1.746034        -3.839519
 C         2.397678        -0.384302        -3.140280
 C         2.129066         0.875923        -3.960254
 C         1.171756         0.252304        -2.893663
 O         1.084011         0.920193        -1.633973
 C         2.430996         0.951155        -1.073295
 C         3.292130        -0.132940        -1.860417
 C         2.141096         0.222841         0.307321
 O         2.596608         0.437988         1.420927
 H         3.552347        -2.071034        -4.077888
 H         2.190533        -2.590060        -3.236909
 H         1.803858        -1.704294        -4.760291
 H         2.707083         1.703145        -3.715924
 H         1.860962         0.573965        -5.017737
 H         0.245067        -0.156680        -3.206547
 H         2.735978         2.039965        -0.888852
 H         4.254603         0.371717        -2.138961
 H         3.466928        -1.094137        -1.326200
 H         1.377742        -0.523999        -0.030460
