19
Iteration:   307
 C         2.521064        -1.716871        -4.002988
 C         2.385050        -0.506415        -3.170320
 C         2.180482         0.957730        -3.865138
 C         1.180327         0.493414        -2.911027
 O         1.225813         0.937451        -1.493508
 C         2.560719         0.660606        -1.055372
 C         3.139428        -0.475994        -1.837590
 C         2.294847         0.202458         0.311385
 O         2.248957         0.799697         1.332611
 H         2.398614        -2.704638        -3.496551
 H         1.763073        -1.776616        -4.718103
 H         3.425070        -1.558861        -4.527158
 H         2.782769         1.832604        -3.541389
 H         1.998438         0.865239        -4.987522
 H         0.139478         0.237436        -3.012983
 H         3.205322         1.536919        -1.111754
 H         4.218218        -0.405309        -2.105006
 H         3.016516        -1.490254        -1.242587
 H         1.926778        -0.950767         0.360895
