19
Iteration:  4005
 C         2.583631        -1.782517        -3.937591
 C         2.352861        -0.473783        -3.039029
 C         2.302095         0.847069        -3.883861
 C         1.169340         0.425054        -3.046221
 O         0.888947         0.884734        -1.667836
 C         2.219977         0.857940        -1.040662
 C         3.127329        -0.136683        -1.764106
 C         2.110339         0.424017         0.461559
 O         2.938622         0.306465         1.286376
 H         3.598070        -2.114473        -3.875599
 H         1.842822        -2.621884        -3.745466
 H         2.314998        -1.430726        -4.993156
 H         2.973896         1.719128        -3.710299
 H         2.231785         0.779582        -4.933388
 H         0.203715         0.086874        -3.534062
 H         2.563187         1.914693        -1.069215
 H         4.168719         0.048464        -1.979204
 H         3.063301        -1.119250        -1.159354
 H         1.036561         0.481183         0.768572
