19
Iteration:  4286
 C         2.543705        -1.728820        -4.010220
 C         2.371620        -0.441238        -3.098590
 C         2.104843         0.836816        -3.953499
 C         1.143954         0.408029        -2.898821
 O         1.238090         1.075484        -1.632510
 C         2.410572         0.636722        -0.959081
 C         3.177335        -0.354076        -1.839368
 C         2.028120         0.178843         0.392622
 O         2.639605         0.667096         1.363285
 H         3.460665        -1.683688        -4.682779
 H         2.430291        -2.651937        -3.478075
 H         1.712609        -1.799764        -4.680109
 H         2.741237         1.684891        -3.613326
 H         1.981597         0.851277        -5.072726
 H         0.149862         0.144578        -3.054363
 H         3.078524         1.506730        -0.980487
 H         4.184488         0.090332        -2.069574
 H         3.368494        -1.323042        -1.359841
 H         1.111516        -0.382609         0.373292
