19
Iteration:  1610
 C         2.495605        -1.771404        -3.875995
 C         2.528213        -0.398409        -3.148142
 C         1.980169         0.857754        -3.885770
 C         1.171436         0.250011        -2.757270
 O         1.203639         1.071476        -1.629341
 C         2.481607         0.783787        -1.014829
 C         3.340371        -0.083403        -1.890405
 C         2.075355         0.092134         0.265265
 O         2.472592         0.538308         1.282289
 H         3.346482        -1.825325        -4.510143
 H         2.450555        -2.597994        -3.140178
 H         1.487634        -1.808136        -4.496742
 H         2.279194         1.886485        -3.620671
 H         1.642706         0.562691        -4.925431
 H         0.333831        -0.326939        -3.126219
 H         3.046976         1.758099        -0.678008
 H         4.265061         0.431087        -2.201136
 H         3.695405        -0.994184        -1.413603
 H         1.382638        -0.855163         0.016799
