19
Iteration:  1237
 C         2.650150        -1.680204        -4.068007
 C         2.459571        -0.442769        -3.241443
 C         2.285254         0.935275        -3.806277
 C         1.072739         0.431565        -2.974477
 O         0.996197         0.732475        -1.628508
 C         2.317113         0.720119        -1.045723
 C         2.899092        -0.468256        -1.773887
 C         2.100790         0.461085         0.455874
 O         2.902425         0.686819         1.418540
 H         3.549490        -1.502483        -4.713791
 H         2.693993        -2.510725        -3.402134
 H         1.898688        -1.741156        -4.883665
 H         2.845685         1.750309        -3.485644
 H         1.942259         0.907387        -4.912391
 H         0.135619         0.442843        -3.533199
 H         2.978025         1.579834        -1.203438
 H         4.019982        -0.624058        -1.695412
 H         2.562181        -1.501730        -1.310827
 H         1.206841        -0.243005         0.618407
