19
Iteration:  2415
 C         2.558198        -1.619812        -3.967749
 C         2.525142        -0.437301        -3.039445
 C         2.238831         0.808132        -3.759139
 C         1.200663         0.209528        -2.932655
 O         0.920402         0.752033        -1.634878
 C         2.280254         0.909200        -1.102301
 C         3.167637        -0.262917        -1.709989
 C         2.065476         0.840364         0.365190
 O         2.787545         0.152412         1.152279
 H         3.574403        -1.888583        -4.150786
 H         2.020649        -2.429365        -3.436324
 H         2.176554        -1.383778        -4.985244
 H         2.648988         1.830034        -3.589546
 H         2.010272         0.700062        -4.875179
 H         0.211035        -0.128107        -3.260872
 H         2.694675         1.924573        -1.217456
 H         4.250647         0.008798        -1.786608
 H         3.115366        -1.178143        -1.206717
 H         1.160027         1.430709         0.645812
