19
Iteration:  3477
 C         2.554832        -1.688088        -3.768420
 C         2.589597        -0.318030        -3.181164
 C         1.958634         0.786498        -4.025769
 C         1.214241         0.181423        -2.907787
 O         1.058466         0.966500        -1.692638
 C         2.335596         0.929211        -0.961380
 C         3.317120         0.015330        -1.838138
 C         1.926597         0.392028         0.421497
 O         2.789455         0.146842         1.243699
 H         3.666771        -2.053203        -3.875240
 H         2.169302        -2.484835        -3.033516
 H         2.010667        -1.748223        -4.700076
 H         2.349095         1.740934        -3.846216
 H         1.787748         0.551357        -5.081142
 H         0.311623        -0.392553        -3.050949
 H         2.561702         2.000661        -0.867068
 H         4.344937         0.430349        -1.917171
 H         3.330196        -0.961179        -1.295375
 H         0.772014         0.260370         0.640773
