19
Iteration:  1943charge 0 multiplicity 1
 C         2.640166        -1.698957        -3.795195
 C         2.350443        -0.425083        -3.152676
 C         2.151982         0.933281        -3.958786
 C         1.098801         0.340006        -3.078121
 O         1.078719         1.035320        -1.760318
 C         2.276272         0.704029        -0.961686
 C         3.127871        -0.282846        -1.892435
 C         2.083009         0.167640         0.478593
 O         2.825231         0.575637         1.402253
 H         3.669217        -1.641058        -4.102273
 H         2.627495        -2.649418        -3.152035
 H         2.059641        -1.822654        -4.635256
 H         2.536538         1.823768        -3.381496
 H         2.046861         0.858212        -5.013303
 H         0.082412        -0.156664        -3.215775
 H         2.741510         1.650430        -0.818024
 H         4.195363         0.016956        -2.025414
 H         3.086506        -1.271916        -1.430160
 H         1.371949        -0.686202         0.486694
