19
Iteration:    55charge 0 multiplicity 1
 C         2.770358        -1.697384        -3.772702
 C         2.421962        -0.370092        -3.059522
 C         2.295924         0.933698        -3.918449
 C         1.054449         0.396907        -3.130879
 O         0.847586         0.926908        -1.791958
 C         2.113360         0.728682        -1.004664
 C         3.058711        -0.316665        -1.634713
 C         1.966431         0.448461         0.499256
 O         3.081251         0.329793         1.128440
 H         2.228970        -2.547492        -3.359690
 H         2.395436        -1.697740        -4.710190
 H         3.821753        -1.762677        -3.849039
 H         2.676478         1.730661        -3.330540
 H         2.552118         0.957089        -4.982746
 H         0.273786        -0.164606        -3.602971
 H         2.701746         1.722173        -0.978896
 H         4.101711        -0.198049        -1.541461
 H         2.895971        -1.235252        -1.146324
 H         0.938679         0.346496         1.028203
