19
Iteration:  1505
 C         2.480946        -1.738769        -3.797094
 C         2.434667        -0.327094        -3.113318
 C         2.023231         0.828894        -3.953972
 C         1.130978         0.255284        -2.824340
 O         1.160872         1.054126        -1.669589
 C         2.507976         0.841481        -0.968577
 C         3.355493        -0.111232        -1.917100
 C         2.139750         0.114306         0.209452
 O         2.470035         0.464577         1.351330
 H         3.491667        -1.947785        -4.160514
 H         2.331660        -2.505473        -2.977576
 H         1.710543        -1.918991        -4.532995
 H         2.456911         1.919135        -3.774808
 H         1.792911         0.869543        -4.997471
 H         0.250509        -0.393411        -3.066419
 H         3.006996         1.761763        -0.834219
 H         4.316263         0.436282        -2.228625
 H         3.529510        -1.135585        -1.404722
 H         1.759543        -0.986796         0.113768
