19
Iteration:  1030charge 0 multiplicity 1
 C         2.498439        -1.783103        -3.608655
 C         2.463234        -0.360934        -3.157748
 C         2.271168         1.059589        -3.833431
 C         1.186093         0.401024        -3.051703
 O         0.953703         0.836904        -1.720109
 C         2.214248         0.717370        -1.036962
 C         3.234860        -0.185747        -1.800798
 C         1.969366         0.414434         0.369753
 O         2.923194         0.280237         1.136886
 H         2.601643        -1.928848        -4.641208
 H         2.995198        -2.395004        -2.893468
 H         1.395211        -2.202484        -3.721295
 H         2.985681         1.977981        -3.539358
 H         2.113150         1.077919        -4.931705
 H         0.335642         0.072488        -3.551235
 H         2.730877         1.715148        -0.988507
 H         4.280585         0.232447        -1.776414
 H         3.219423        -1.122282        -1.325828
 H         0.892254         0.281899         0.787019
