19
Iteration:   245charge 0 multiplicity 1
 C         2.294810        -1.598770        -4.083843
 C         2.499775        -0.376055        -3.300920
 C         2.249209         0.972663        -3.886276
 C         1.254012         0.355833        -2.867434
 O         1.227403         0.694431        -1.501485
 C         2.547644         0.463346        -0.967753
 C         3.339203        -0.424396        -1.953989
 C         2.224481         0.121017         0.508633
 O         2.186492         1.081729         1.347341
 H         1.593594        -2.352987        -3.425549
 H         1.517938        -1.366372        -4.965052
 H         3.216573        -2.151899        -4.449459
 H         2.911371         1.750274        -3.527216
 H         1.790562         0.980144        -4.893997
 H         0.280178         0.247549        -3.289411
 H         3.107755         1.457740        -0.845011
 H         4.399376        -0.070287        -2.033023
 H         3.424439        -1.419022        -1.619447
 H         1.844546        -0.901663         0.803463
