19
Iteration:    90
 C         2.586979        -1.619718        -3.962073
 C         2.479555        -0.394909        -3.129185
 C         2.369405         0.888564        -3.832184
 C         1.197320         0.326302        -3.015591
 O         0.905010         0.711975        -1.685110
 C         2.202378         0.764552        -1.040103
 C         3.037317        -0.305783        -1.738346
 C         2.006128         0.487204         0.443493
 O         2.919936         0.514382         1.290280
 H         2.196523        -2.461932        -3.528901
 H         2.061332        -1.379960        -4.901116
 H         3.577565        -1.918055        -4.242263
 H         3.039918         1.633582        -3.400225
 H         2.245130         1.046760        -4.907013
 H         0.291406        -0.128450        -3.433613
 H         2.697690         1.776360        -1.159524
 H         4.127125        -0.151546        -1.618588
 H         2.662023        -1.234224        -1.304232
 H         0.979010         0.180381         0.763431
