19
Iteration:  3482charge 0 multiplicity 1
 C         2.552959        -1.752041        -3.782697
 C         2.580864        -0.274976        -3.133924
 C         1.955017         0.776347        -4.021198
 C         1.214917         0.202619        -2.915659
 O         1.079832         0.938060        -1.705658
 C         2.312799         0.983044        -0.952762
 C         3.318886        -0.018390        -1.810763
 C         1.886519         0.387278         0.406528
 O         2.815841         0.152183         1.242456
 H         3.573043        -1.851043        -4.017922
 H         2.049822        -2.459917        -3.146602
 H         2.032830        -1.656128        -4.767955
 H         2.356430         1.830147        -3.880461
 H         1.704533         0.533319        -5.077833
 H         0.393646        -0.515276        -3.106327
 H         2.773368         2.004884        -0.889218
 H         4.270656         0.518758        -1.775342
 H         3.439906        -0.989993        -1.317950
 H         0.841458         0.229943         0.576048
