19
Iteration:   991
 C         2.464262        -1.786244        -3.815509
 C         2.465050        -0.403009        -3.076189
 C         2.335909         0.898640        -3.973091
 C         1.175962         0.388624        -3.027274
 O         0.958485         0.832311        -1.721498
 C         2.184558         0.897036        -1.010699
 C         3.140574        -0.055935        -1.736347
 C         1.984997         0.405751         0.461344
 O         2.955821         0.245743         1.259998
 H         2.442429        -1.494054        -4.891738
 H         3.329310        -2.490418        -3.908940
 H         1.712074        -2.302654        -3.341103
 H         3.225523         1.400974        -3.734583
 H         2.220636         0.792040        -5.008091
 H         0.247530         0.185528        -3.560759
 H         2.500333         1.968578        -1.017160
 H         4.161065         0.290884        -1.829752
 H         3.131706        -1.098004        -1.195645
 H         1.011156         0.096950         0.667413
