19
Iteration:  1676charge 0 multiplicity 1
 C         2.598594        -1.777870        -3.829134
 C         2.465628        -0.354545        -3.147457
 C         1.980691         0.835891        -4.036677
 C         1.184843         0.335736        -2.930119
 O         1.113887         1.037635        -1.694375
 C         2.393479         0.836990        -0.965075
 C         3.206588        -0.098268        -1.850816
 C         2.089902         0.078970         0.355861
 O         2.662429         0.492464         1.404204
 H         3.595351        -1.912498        -4.117829
 H         2.301854        -2.564987        -3.114400
 H         1.981252        -1.961519        -4.791531
 H         2.506786         1.893699        -3.958337
 H         1.746047         0.618228        -5.044475
 H         0.134337        -0.091334        -3.108737
 H         2.898453         1.872164        -0.807455
 H         4.267350         0.105649        -1.877229
 H         3.237417        -1.135502        -1.455534
 H         1.496476        -0.835017         0.424480
