19
Iteration:  1791charge 0 multiplicity 1
 C         2.810062        -1.664043        -3.997039
 C         2.477183        -0.428025        -3.071138
 C         2.183648         0.953044        -3.749512
 C         1.125496         0.244897        -2.959619
 O         0.918990         0.936356        -1.729065
 C         2.195694         0.817972        -1.008554
 C         2.989486        -0.494046        -1.641861
 C         1.966285         0.526880         0.423433
 O         3.020522         0.438168         1.113127
 H         3.845697        -1.751033        -4.569412
 H         2.449557        -2.712214        -3.590689
 H         2.156779        -1.567959        -4.893033
 H         2.401373         1.981528        -3.279595
 H         2.115068         1.053947        -4.789556
 H         0.157939        -0.118480        -3.352610
 H         2.873317         1.722388        -1.081660
 H         4.094954        -0.447802        -1.443666
 H         2.658050        -1.430176        -1.130136
 H         0.870147         0.539275         0.694291
