19
Iteration:  2593
 C         2.610234        -1.828463        -3.596982
 C         2.304125        -0.370919        -3.241094
 C         2.278749         0.946010        -4.007018
 C         1.139846         0.430821        -3.044044
 O         1.038247         0.918268        -1.695710
 C         2.240043         0.793643        -1.019058
 C         3.172870        -0.128122        -1.876064
 C         2.000709         0.287707         0.483187
 O         2.881980         0.311841         1.248256
 H         3.736995        -2.183147        -3.549242
 H         2.158794        -2.376331        -2.825181
 H         2.180650        -2.169113        -4.523308
 H         2.678801         1.666948        -3.360744
 H         1.966323         1.090658        -5.128998
 H         0.112095         0.272798        -3.462062
 H         2.721816         1.778638        -0.825627
 H         3.986991         0.467454        -2.141354
 H         3.444480        -1.132552        -1.485076
 H         0.957259         0.073086         0.727601
