19
Iteration:   850
 C         2.430002        -1.762795        -3.854731
 C         2.480984        -0.357400        -3.139087
 C         2.461312         1.061638        -3.801937
 C         1.243229         0.499419        -3.083544
 O         0.952837         0.692569        -1.659773
 C         2.265078         0.759488        -1.019005
 C         3.056885        -0.395592        -1.756912
 C         2.047944         0.276232         0.392637
 O         2.799593         0.609971         1.252703
 H         1.494509        -2.385690        -3.586514
 H         2.054918        -1.633820        -4.945621
 H         3.344093        -2.282658        -3.885317
 H         3.195511         1.701123        -3.332471
 H         2.380568         1.126227        -4.839782
 H         0.314014         0.357075        -3.539541
 H         2.736443         1.768590        -1.114810
 H         4.049350        -0.113658        -1.770809
 H         2.983901        -1.303031        -1.258702
 H         1.208158        -0.303348         0.599872
