19
Iteration:  2240
 C         2.507605        -1.754815        -3.647118
 C         2.430727        -0.354237        -3.131639
 C         2.122995         0.791420        -4.083927
 C         1.143287         0.338588        -2.978323
 O         1.134407         1.047658        -1.747982
 C         2.366139         0.842953        -0.991838
 C         3.265304         0.019911        -1.889222
 C         2.022341         0.150023         0.367356
 O         2.715877         0.289648         1.405752
 H         3.558094        -1.888572        -3.882505
 H         2.201995        -2.506381        -2.945989
 H         1.808816        -1.893578        -4.514643
 H         2.510298         1.894133        -3.987687
 H         1.698771         0.380771        -5.033689
 H         0.242696        -0.259128        -3.220995
 H         2.785760         1.850449        -0.722621
 H         4.234732         0.580091        -2.156426
 H         3.587526        -0.838491        -1.306377
 H         1.093303        -0.378526         0.165847
