19
Iteration:  2288
 C         2.583077        -1.800058        -3.631888
 C         2.438314        -0.398368        -3.123618
 C         2.095018         0.858933        -3.971596
 C         1.133667         0.332178        -2.975090
 O         1.109656         1.018359        -1.760453
 C         2.275316         0.882948        -1.056729
 C         3.254818        -0.013493        -1.885556
 C         2.014346         0.284885         0.397294
 O         2.776922         0.213099         1.314668
 H         3.683100        -2.039178        -3.935045
 H         2.411650        -2.567883        -2.829196
 H         1.803178        -1.944699        -4.398106
 H         2.633197         1.603980        -3.505129
 H         2.001900         0.785134        -5.028715
 H         0.137294         0.076627        -3.349177
 H         2.609001         1.914179        -0.883351
 H         4.134650         0.497057        -2.255838
 H         3.524690        -1.048219        -1.378390
 H         0.967936        -0.004746         0.320339
