19
Iteration:  1269charge 0 multiplicity 1
 C         2.631498        -1.588716        -4.148271
 C         2.399084        -0.446779        -3.121754
 C         2.175747         0.891015        -3.773908
 C         1.134407         0.294387        -2.947793
 O         1.062705         0.917096        -1.687666
 C         2.312771         0.555720        -0.994278
 C         3.079062        -0.600473        -1.820259
 C         1.992182         0.612259         0.516021
 O         2.864796         0.637260         1.349842
 H         3.558470        -1.157286        -4.675832
 H         2.875050        -2.587420        -3.830987
 H         1.781350        -1.651680        -4.807642
 H         2.651760         1.755557        -3.414113
 H         2.185214         0.902477        -4.917445
 H         0.158489         0.037142        -3.245935
 H         3.095795         1.250947        -1.090137
 H         4.135608        -0.259277        -1.984260
 H         2.822645        -1.601227        -1.263834
 H         0.824440         0.576820         0.786947
