19
Iteration:  2773charge 0 multiplicity 1
 C         2.463597        -1.765652        -3.981396
 C         2.437913        -0.446896        -3.209591
 C         2.167632         0.950813        -3.813973
 C         1.146779         0.395111        -2.934201
 O         1.101163         0.763687        -1.627427
 C         2.434801         0.720562        -0.999358
 C         3.245558        -0.266302        -1.969086
 C         2.135303         0.232026         0.377513
 O         2.588520         0.741522         1.437712
 H         3.522464        -2.114621        -4.012889
 H         1.764740        -2.490524        -3.621514
 H         1.989804        -1.692444        -4.955153
 H         2.593978         1.811001        -3.428799
 H         2.051367         1.024646        -4.925526
 H         0.089573         0.263470        -3.265684
 H         2.982497         1.692106        -0.901939
 H         4.298981         0.185484        -1.922539
 H         3.288361        -1.156962        -1.290175
 H         1.625795        -0.694380         0.388044
