19
Iteration:  3187
 C         2.596366        -1.720372        -3.585789
 C         2.593150        -0.309072        -3.099419
 C         2.062142         0.717279        -4.074920
 C         1.128546         0.225173        -2.931415
 O         1.002106         0.938686        -1.658883
 C         2.282416         1.025381        -0.971092
 C         3.237048         0.164929        -1.834176
 C         2.048151         0.544689         0.481968
 O         2.797703        -0.157066         1.023390
 H         3.578385        -1.914375        -4.051788
 H         2.221240        -2.317998        -2.768413
 H         1.869321        -1.873259        -4.408971
 H         2.446687         1.784763        -4.111400
 H         1.784138         0.313458        -5.052097
 H         0.198315        -0.338203        -3.090277
 H         2.508729         2.123654        -0.992281
 H         4.202175         0.657125        -2.094893
 H         3.657936        -0.585257        -1.189418
 H         0.990717         0.593030         0.759621
