19
Iteration:  3737
 C         2.534087        -1.737517        -4.027683
 C         2.424209        -0.449492        -3.275505
 C         2.268023         1.063659        -3.874062
 C         1.148786         0.376509        -3.034998
 O         0.966629         0.715968        -1.614534
 C         2.382814         0.676556        -0.993665
 C         3.121036        -0.409225        -1.831329
 C         2.198980         0.308916         0.510242
 O         2.700738         0.789069         1.463331
 H         3.467851        -1.659785        -4.667104
 H         2.327012        -2.673926        -3.513407
 H         1.841964        -1.663572        -4.863333
 H         3.034200         1.696619        -3.343983
 H         2.002213         1.261989        -4.854629
 H         0.129531         0.173712        -3.454176
 H         2.816372         1.663526        -1.017649
 H         4.237651        -0.228811        -1.764499
 H         2.881000        -1.418695        -1.497258
 H         1.271683        -0.436647         0.391743
