19
Iteration:  3249
 C         2.739055        -1.792363        -3.624553
 C         2.444628        -0.391804        -2.989720
 C         2.018064         0.737056        -3.970751
 C         1.123706         0.267609        -2.844095
 O         0.987807         1.083053        -1.712357
 C         2.269869         1.038342        -1.043814
 C         3.266057         0.123008        -1.803871
 C         2.049683         0.545117         0.365163
 O         2.768389        -0.192147         0.984012
 H         3.503810        -1.705665        -4.424786
 H         3.264585        -2.463219        -2.845370
 H         1.994584        -2.379662        -4.161967
 H         2.546499         1.663339        -3.789710
 H         1.668745         0.425272        -4.983385
 H         0.148361        -0.150099        -3.200007
 H         2.705091         2.073084        -0.921060
 H         4.201187         0.601081        -2.114081
 H         3.458173        -0.706704        -1.038938
 H         1.096885         0.793129         0.723515
