19
Iteration:  1654charge 0 multiplicity 1
 C         2.727059        -1.749178        -3.822631
 C         2.350095        -0.463607        -3.233312
 C         2.019634         0.791800        -4.110220
 C         1.052550         0.402289        -2.942100
 O         1.147337         1.098745        -1.634465
 C         2.453858         0.844370        -1.011003
 C         3.158601        -0.178168        -1.927004
 C         2.205640         0.171048         0.370879
 O         2.560256         0.426214         1.591050
 H         3.672416        -1.633873        -4.277231
 H         2.701985        -2.492788        -2.998134
 H         1.921058        -2.104198        -4.591479
 H         2.611211         1.818513        -4.140111
 H         1.587296         0.574029        -5.077214
 H        -0.052376         0.160176        -3.178009
 H         3.033403         1.860829        -0.911520
 H         4.127753         0.240905        -2.182154
 H         3.446150        -1.166457        -1.527912
 H         1.638742        -0.729641         0.356736
