19
Iteration:  4150charge 0 multiplicity 1
 C         2.533532        -1.750636        -3.961862
 C         2.523432        -0.396567        -3.151651
 C         2.235891         0.999128        -3.839152
 C         1.167245         0.443332        -3.022110
 O         0.981813         0.731368        -1.653400
 C         2.276923         0.889552        -1.011836
 C         3.003660        -0.460154        -1.757344
 C         2.110822         0.384977         0.381864
 O         2.891810         0.569846         1.368752
 H         3.481307        -2.063314        -4.333316
 H         2.050666        -2.542352        -3.352521
 H         2.057700        -1.531008        -4.933606
 H         2.779418         1.954966        -3.664147
 H         2.183434         0.953138        -4.865544
 H         0.316789         0.221421        -3.586299
 H         2.907282         1.760781        -1.204207
 H         4.100297        -0.578740        -1.621772
 H         2.413156        -1.303536        -1.404072
 H         1.143565        -0.260778         0.534343
