19
Iteration:  3246
 C         2.753793        -1.810565        -3.602538
 C         2.426721        -0.405752        -3.018203
 C         2.040041         0.763118        -3.953469
 C         1.087517         0.266637        -2.850026
 O         1.008953         1.075240        -1.715499
 C         2.266882         1.068781        -1.039653
 C         3.256865         0.109547        -1.838390
 C         2.051378         0.517631         0.383859
 O         2.770432        -0.189293         0.992183
 H         3.584996        -1.684743        -4.373614
 H         3.318486        -2.426608        -2.869397
 H         1.941672        -2.395862        -4.100360
 H         2.588415         1.648558        -3.806628
 H         1.704974         0.561825        -5.020999
 H         0.127167        -0.228339        -3.113488
 H         2.614437         2.167808        -0.886843
 H         4.244032         0.614545        -2.245385
 H         3.354647        -0.709161        -1.039461
 H         1.073049         0.890585         0.701327
