19
Iteration:  2067
 C         2.561008        -1.804531        -3.669507
 C         2.364468        -0.338368        -3.173532
 C         2.006717         0.845090        -4.013995
 C         1.116361         0.351398        -2.930857
 O         1.128161         1.068984        -1.697120
 C         2.519965         0.848872        -1.115383
 C         3.301009        -0.118218        -1.933818
 C         2.183333         0.167793         0.335640
 O         2.505646         0.376785         1.489743
 H         3.563183        -1.818253        -4.286183
 H         2.593417        -2.383067        -2.766722
 H         1.957785        -2.266279        -4.555304
 H         2.562155         1.841171        -3.821223
 H         1.664643         0.682688        -5.019268
 H         0.152802        -0.053465        -3.164941
 H         2.920805         1.903163        -0.793994
 H         4.317690         0.137673        -2.317133
 H         3.411559        -1.041341        -1.285719
 H         1.696931        -0.808365         0.013428
