19
Iteration:  3180charge 0 multiplicity 1
 C         2.558192        -1.698493        -3.634103
 C         2.519875        -0.318273        -3.106953
 C         2.104968         0.716286        -4.028587
 C         1.115057         0.162965        -2.917261
 O         1.037130         0.943916        -1.703613
 C         2.248984         1.090181        -0.966632
 C         3.276271         0.171603        -1.797151
 C         2.019269         0.582202         0.438897
 O         2.834749        -0.181818         1.047320
 H         3.576197        -2.156306        -3.981795
 H         2.144846        -2.379323        -2.867142
 H         2.028844        -1.766011        -4.636168
 H         2.353212         1.811660        -4.020567
 H         1.897527         0.228988        -4.927947
 H         0.267934        -0.480278        -2.976522
 H         2.459810         2.221910        -0.857022
 H         4.230276         0.836129        -2.167885
 H         3.654435        -0.733100        -1.119801
 H         0.954163         0.472476         0.848721
