19
Iteration:   562
 C         2.497920        -1.767245        -4.033554
 C         2.519457        -0.437869        -3.139121
 C         2.180412         1.005234        -3.870645
 C         1.200753         0.347810        -2.991389
 O         1.108057         0.800665        -1.656049
 C         2.457762         0.669438        -1.008666
 C         3.303455        -0.347477        -1.771703
 C         1.981984         0.712403         0.454929
 O         2.553045         0.357070         1.395789
 H         2.048264        -2.634239        -3.464764
 H         1.755673        -1.607928        -4.898522
 H         3.338976        -2.047492        -4.651768
 H         2.573506         1.980650        -3.709449
 H         1.829484         0.893102        -4.921194
 H         0.253990        -0.048641        -3.448896
 H         2.923202         1.693028        -0.978874
 H         4.318566         0.168066        -1.935122
 H         3.345089        -1.387907        -1.272236
 H         0.961822         1.013562         0.439401
