19
Iteration:  1298charge 0 multiplicity 1
 C         2.501670        -1.614258        -4.120695
 C         2.490051        -0.403096        -3.138405
 C         2.181683         0.948511        -3.833862
 C         1.209906         0.260216        -2.970787
 O         1.036847         0.774144        -1.655002
 C         2.355492         0.721333        -1.033974
 C         3.052051        -0.451972        -1.681751
 C         2.024732         0.602924         0.444588
 O         2.843615         0.529275         1.342050
 H         3.546715        -1.663860        -4.635250
 H         2.378975        -2.670648        -3.787494
 H         1.806130        -1.409037        -4.909698
 H         2.610941         1.848067        -3.429701
 H         2.201191         0.854888        -4.976733
 H         0.308841        -0.193862        -3.227486
 H         2.992678         1.688067        -1.252108
 H         4.149706        -0.496442        -1.604132
 H         2.761662        -1.366233        -1.150750
 H         0.996288         0.532447         0.667299
