19
Iteration:  2040charge 0 multiplicity 1
 C         2.534771        -1.734135        -3.748403
 C         2.439920        -0.314890        -3.200666
 C         2.025851         0.744673        -4.115647
 C         1.205020         0.428225        -2.897111
 O         1.197104         1.007742        -1.618964
 C         2.405479         0.690473        -0.965691
 C         3.252399        -0.059377        -1.896264
 C         2.068099         0.090096         0.356135
 O         2.578601         0.519140         1.375456
 H         3.475514        -1.940986        -4.203744
 H         2.398096        -2.534982        -2.944216
 H         1.874432        -1.869152        -4.529367
 H         2.517646         1.672500        -4.010396
 H         1.524373         0.552403        -5.115404
 H         0.211726        -0.041682        -3.091228
 H         2.863551         1.552220        -0.584382
 H         4.129265         0.563561        -2.115125
 H         3.585331        -0.986307        -1.474051
 H         1.454311        -0.786533         0.241524
