19
Iteration:  1918charge 0 multiplicity 1
 C         2.606362        -1.710762        -4.071108
 C         2.457917        -0.498478        -3.145206
 C         2.237630         0.894613        -3.869967
 C         1.149479         0.316310        -2.965928
 O         0.982110         0.955058        -1.710251
 C         2.204796         0.765340        -0.953467
 C         3.127922        -0.267228        -1.752979
 C         2.036736         0.265306         0.442837
 O         2.883737         0.596794         1.359651
 H         3.634194        -1.881293        -4.368946
 H         2.230922        -2.646713        -3.521259
 H         1.979901        -1.659364        -4.998034
 H         2.833040         1.778785        -3.493575
 H         2.054998         0.636106        -4.906420
 H         0.100044         0.119057        -3.245778
 H         2.620587         1.753014        -0.877964
 H         4.115166         0.151061        -1.925299
 H         3.237933        -1.173396        -1.133856
 H         1.115677        -0.339732         0.535447
