19
Iteration:  4887
 C         2.408152        -1.782377        -3.804254
 C         2.474717        -0.441176        -3.154639
 C         2.260367         0.907114        -3.844806
 C         1.169626         0.452438        -3.027814
 O         1.084687         1.038976        -1.716559
 C         2.285873         0.672032        -0.975302
 C         3.239900        -0.251210        -1.884383
 C         2.034756         0.136553         0.442798
 O         2.744764         0.623958         1.305805
 H         3.371614        -2.353798        -4.077722
 H         1.738507        -2.524238        -3.369451
 H         1.988713        -1.733125        -4.898865
 H         2.678002         1.815831        -3.573759
 H         2.027179         0.882577        -4.900453
 H         0.266483        -0.002099        -3.565938
 H         2.816630         1.608504        -0.648858
 H         4.240993         0.154500        -1.995491
 H         3.436057        -1.244387        -1.353248
 H         1.309844        -0.774755         0.599597
