19
Iteration:  2652
 C         2.525046        -1.712523        -3.915143
 C         2.445730        -0.444646        -3.082736
 C         2.120145         0.760174        -3.894359
 C         1.173344         0.221383        -2.915287
 O         1.094981         1.111052        -1.765167
 C         2.349765         0.941712        -1.042448
 C         3.216021        -0.136052        -1.791835
 C         2.061616         0.238077         0.409334
 O         2.726320         0.367757         1.350158
 H         3.427249        -1.846863        -4.716937
 H         2.341020        -2.683677        -3.312947
 H         1.621080        -1.800932        -4.612921
 H         2.442165         1.797637        -3.627700
 H         2.114701         0.636361        -4.905398
 H         0.223949        -0.226401        -3.105263
 H         2.809589         1.971846        -0.907454
 H         4.307120         0.282629        -1.859310
 H         3.410514        -1.146047        -1.263216
 H         1.088200        -0.315218         0.404729
