19
Iteration:   989charge 0 multiplicity 1
 C         2.482233        -1.776962        -3.834399
 C         2.484815        -0.416884        -3.082182
 C         2.315325         0.878198        -3.976551
 C         1.153711         0.401482        -3.014646
 O         0.959171         0.845761        -1.722471
 C         2.188891         0.903688        -1.015644
 C         3.138545        -0.069578        -1.719706
 C         1.981396         0.407890         0.458133
 O         2.955769         0.247237         1.263351
 H         2.346904        -1.488410        -4.848527
 H         3.342352        -2.448565        -3.892531
 H         1.688593        -2.434052        -3.333516
 H         3.272957         1.448558        -3.746673
 H         2.271554         0.845806        -5.030625
 H         0.300649         0.198017        -3.533194
 H         2.514749         1.922647        -1.003885
 H         4.196399         0.314473        -1.842482
 H         3.140878        -1.128933        -1.207501
 H         0.972901         0.085985         0.666933
