19
Iteration:  3229
 C         2.848160        -1.791205        -3.472635
 C         2.371918        -0.388796        -3.128850
 C         2.040033         0.820999        -3.929410
 C         1.051568         0.274266        -2.946653
 O         1.013920         1.028402        -1.690662
 C         2.356743         1.044017        -1.081234
 C         3.169735         0.091527        -1.946224
 C         2.049207         0.521988         0.426451
 O         2.766069        -0.188414         1.046812
 H         3.454533        -1.950600        -4.329853
 H         3.068108        -2.291474        -2.511301
 H         2.007666        -2.372633        -3.836560
 H         2.416773         1.735701        -3.386309
 H         1.962626         0.733566        -5.000368
 H         0.047478        -0.088257        -3.216589
 H         2.856046         1.978453        -1.108196
 H         4.008776         0.611264        -2.226114
 H         3.652672        -0.718035        -1.510791
 H         1.017959         0.774693         1.018013
