19
Iteration:  3839
 C         2.587509        -1.788362        -3.805501
 C         2.415719        -0.313548        -3.197339
 C         2.140209         0.882444        -3.996639
 C         1.082321         0.423374        -2.934632
 O         1.146534         0.968313        -1.634091
 C         2.343246         0.790451        -0.989907
 C         3.139581        -0.236957        -1.830490
 C         2.160156         0.169143         0.335179
 O         2.668390         0.506347         1.390676
 H         3.669487        -2.095006        -3.910704
 H         2.065117        -2.623377        -3.284936
 H         2.138971        -1.918011        -4.791479
 H         2.758528         1.727008        -3.959429
 H         1.974690         0.799141        -5.159840
 H         0.076783         0.242389        -3.212171
 H         2.717221         1.825575        -0.866152
 H         4.212771         0.014330        -1.935906
 H         3.129265        -1.295329        -1.439246
 H         1.417164        -0.637660         0.156255
