19
Iteration:  4764
 C         2.467315        -1.784932        -3.907568
 C         2.389604        -0.436731        -3.202527
 C         2.217474         0.865081        -3.989032
 C         1.127930         0.449030        -2.984349
 O         1.155078         0.996970        -1.645016
 C         2.393242         0.782244        -1.017935
 C         3.231989        -0.255116        -1.823324
 C         2.090239         0.195165         0.422598
 O         2.634301         0.545333         1.446900
 H         3.560024        -2.043810        -4.113385
 H         2.201488        -2.665061        -3.245875
 H         1.836806        -2.002473        -4.785801
 H         2.924767         1.711425        -4.001451
 H         1.857196         0.686355        -5.006343
 H         0.102887         0.361635        -3.184332
 H         2.917576         1.759759        -0.796336
 H         4.357029        -0.049034        -1.957079
 H         3.145787        -1.281935        -1.413660
 H         1.077406        -0.179268         0.368329
