19
Iteration:  1318
 C         2.553406        -1.680271        -4.007683
 C         2.470305        -0.386183        -3.178649
 C         2.295624         0.932065        -3.827586
 C         1.164676         0.333059        -2.993152
 O         0.969902         0.696146        -1.650845
 C         2.257326         0.840845        -1.063066
 C         3.073356        -0.383173        -1.791752
 C         2.084096         0.569738         0.465418
 O         2.890057         0.448809         1.351610
 H         3.491514        -2.099022        -4.160393
 H         1.998762        -2.426661        -3.385580
 H         1.930932        -1.549837        -4.914913
 H         2.882853         1.809519        -3.569983
 H         2.039460         1.031145        -4.888943
 H         0.161241         0.115349        -3.411265
 H         2.812488         1.781676        -1.194535
 H         4.127417        -0.220661        -1.669575
 H         2.739685        -1.149217        -1.200805
 H         0.902757         0.411005         0.606042
