19
Iteration:   896
 C         2.569359        -1.706649        -4.064354
 C         2.393769        -0.420107        -3.145362
 C         2.244044         0.907802        -3.920815
 C         1.171597         0.358147        -3.043100
 O         1.103593         0.937651        -1.704613
 C         2.339808         0.737400        -0.972871
 C         3.125492        -0.363218        -1.740883
 C         1.967213         0.436056         0.481246
 O         2.790434         0.464071         1.436874
 H         1.558143        -2.159545        -4.242446
 H         2.822617        -1.562452        -5.132613
 H         3.303845        -2.361738        -3.567159
 H         2.619185         1.894463        -3.673747
 H         2.142443         0.566928        -4.968509
 H         0.102815         0.149145        -3.294453
 H         2.936882         1.664373        -0.979117
 H         4.185240        -0.185592        -1.820018
 H         2.965876        -1.239057        -1.169583
 H         0.952008         0.157621         0.672966
