19
Iteration:   762
 C         2.577682        -1.620612        -4.132479
 C         2.429305        -0.476559        -3.199781
 C         2.254599         0.922083        -3.847996
 C         1.136436         0.421903        -2.938960
 O         1.153901         0.873014        -1.664168
 C         2.424747         0.657203        -1.057551
 C         3.034390        -0.579382        -1.681848
 C         2.037232         0.524388         0.395365
 O         2.665910         0.620905         1.473086
 H         2.854953        -2.682667        -3.724702
 H         1.672726        -1.751617        -4.886158
 H         3.495327        -1.392407        -4.587910
 H         2.663811         1.820989        -3.440144
 H         2.077670         0.867815        -4.953949
 H         0.111362         0.204008        -3.376118
 H         3.185123         1.447634        -1.295451
 H         4.079215        -0.594582        -1.540705
 H         2.723079        -1.550298        -1.324300
 H         0.913519         0.288248         0.418493
