19
Iteration:  3495charge 0 multiplicity 1
 C         2.616147        -1.711430        -3.836029
 C         2.533733        -0.367655        -3.017450
 C         2.039118         0.848803        -4.026616
 C         1.129704         0.246535        -2.904629
 O         1.079609         0.926075        -1.731632
 C         2.239968         0.921336        -0.999521
 C         3.277525        -0.038605        -1.675641
 C         2.003454         0.435526         0.357694
 O         2.812165         0.170415         1.220056
 H         3.448096        -2.290483        -4.187341
 H         2.204759        -2.563940        -3.382801
 H         1.919452        -1.522044        -4.709905
 H         2.171833         1.999499        -4.049789
 H         1.710265         0.445624        -4.922477
 H         0.238498        -0.413580        -3.021305
 H         2.758010         1.928308        -1.000621
 H         4.187617         0.510122        -1.954483
 H         3.605352        -0.912815        -1.154647
 H         1.042941        -0.000168         0.457358
