19
Iteration:  3112charge 0 multiplicity 1
 C         2.840380        -1.741255        -3.545508
 C         2.402780        -0.307078        -3.081014
 C         1.979418         0.812135        -4.101916
 C         1.054292         0.369670        -2.990508
 O         1.000082         0.978180        -1.695783
 C         2.286364         0.998689        -1.017211
 C         3.119155        -0.025709        -1.817924
 C         2.164110         0.453346         0.393656
 O         2.839649        -0.094409         1.181710
 H         3.989154        -1.819536        -3.640112
 H         2.345700        -2.415823        -2.829022
 H         2.505299        -1.962450        -4.589103
 H         2.495251         1.746894        -4.190765
 H         1.378459         0.486316        -5.002673
 H         0.068464        -0.047474        -3.299015
 H         2.694761         2.038968        -1.143164
 H         4.267812         0.345719        -1.857420
 H         3.304375        -1.047325        -1.341734
 H         0.982005         0.547274         0.700516
