19
Iteration:   494charge 0 multiplicity 1
 C         2.744311        -1.694015        -3.904132
 C         2.432486        -0.462755        -3.077872
 C         2.313281         0.899627        -3.784152
 C         1.152924         0.345404        -2.968455
 O         0.942623         0.896190        -1.713753
 C         2.257288         0.749695        -1.013727
 C         3.012762        -0.368386        -1.669663
 C         1.995037         0.826112         0.429237
 O         2.829487         0.161868         1.085671
 H         2.247720        -2.530401        -3.409056
 H         2.251508        -1.668627        -4.842402
 H         3.820319        -1.816194        -4.191743
 H         2.923670         1.766177        -3.466763
 H         2.160594         1.006682        -4.822813
 H         0.153962         0.045737        -3.433897
 H         2.851791         1.658387        -1.275952
 H         4.125381        -0.272089        -1.583743
 H         2.687338        -1.316198        -1.218685
 H         1.148440         1.379817         0.816772
