19
Iteration:   526charge 0 multiplicity 1
 C         2.580932        -1.687021        -3.991899
 C         2.467466        -0.390215        -3.172733
 C         2.328825         0.914435        -3.908848
 C         1.130205         0.333017        -3.016810
 O         0.999542         0.706024        -1.663488
 C         2.397470         0.740386        -1.019947
 C         3.133466        -0.280239        -1.817087
 C         2.100797         0.802389         0.483837
 O         2.624302         0.261436         1.424280
 H         2.096015        -2.487673        -3.402101
 H         1.933922        -1.470570        -4.791300
 H         3.671908        -2.184656        -4.220605
 H         2.729659         1.826737        -3.460212
 H         2.122258         0.836996        -4.932713
 H         0.199127        -0.061824        -3.569461
 H         2.910323         1.708118        -1.369504
 H         4.224254        -0.277348        -1.752059
 H         2.898483        -1.149626        -1.275422
 H         1.184809         1.317883         0.590848
