19
Iteration:  3365
 C         2.678935        -1.805563        -3.589627
 C         2.568713        -0.366311        -3.062282
 C         2.055193         0.786542        -3.986231
 C         1.107600         0.242697        -2.885393
 O         0.918925         1.076947        -1.752254
 C         2.212592         0.989740        -1.045260
 C         3.319547         0.102213        -1.759494
 C         2.003646         0.530683         0.425341
 O         2.841757        -0.167661         1.024868
 H         3.680926        -1.960847        -4.147096
 H         2.410563        -2.492861        -2.787901
 H         1.951572        -1.875297        -4.463615
 H         2.461073         1.761109        -3.889579
 H         1.711989         0.521032        -5.003365
 H         0.281484        -0.416017        -3.229402
 H         2.596868         2.006054        -0.956162
 H         4.197221         0.734381        -2.023490
 H         3.652566        -0.801831        -1.275517
 H         1.153415         0.942690         0.901475
