19
Iteration:  3982
 C         2.604027        -1.709799        -3.787411
 C         2.440748        -0.381529        -3.139200
 C         2.177342         0.896726        -3.972509
 C         1.150073         0.328091        -3.020677
 O         1.021293         0.949354        -1.678391
 C         2.239687         0.912295        -1.056296
 C         3.056559        -0.256953        -1.743055
 C         2.035660         0.376598         0.451005
 O         2.932803         0.282430         1.250226
 H         3.644155        -1.993095        -3.627103
 H         1.929515        -2.435298        -3.252851
 H         2.353806        -1.728970        -4.889365
 H         2.889804         1.791289        -3.891084
 H         2.076981         0.743526        -4.991953
 H         0.119113         0.095507        -3.264582
 H         2.887088         1.792989        -1.032902
 H         4.113898        -0.020647        -1.879045
 H         2.933339        -1.169653        -1.086711
 H         0.965118        -0.027913         0.643062
