19
Iteration:  4250charge 0 multiplicity 1
 C         2.473078        -1.710002        -3.897251
 C         2.449375        -0.404220        -3.200034
 C         2.100559         0.985873        -3.977974
 C         1.165370         0.372590        -2.983534
 O         1.161831         0.918427        -1.644030
 C         2.455740         0.742794        -1.064619
 C         3.110786        -0.429628        -1.796821
 C         2.227058         0.339526         0.353163
 O         2.574659         0.575670         1.508281
 H         3.427564        -1.859563        -4.463609
 H         2.407566        -2.564185        -3.223596
 H         1.670121        -1.639565        -4.639457
 H         2.579376         1.894140        -3.609867
 H         1.981263         0.852675        -5.113515
 H         0.169137        -0.194103        -3.217948
 H         3.258167         1.549589        -1.124412
 H         4.235455        -0.203266        -1.824245
 H         2.932635        -1.425922        -1.474645
 H         1.394532        -0.326406         0.339178
