19
Iteration:  3819charge 0 multiplicity 1
 C         2.574934        -1.704787        -3.946854
 C         2.323228        -0.527148        -3.119338
 C         2.179904         0.821374        -3.928064
 C         1.170719         0.401400        -2.982988
 O         0.993908         1.017892        -1.676960
 C         2.402344         0.828227        -1.051921
 C         3.175814        -0.202043        -1.874359
 C         2.210590         0.202306         0.421914
 O         2.657260         0.518292         1.490129
 H         3.540103        -2.151543        -3.845079
 H         1.944108        -2.589599        -3.627822
 H         2.280888        -1.657586        -5.004978
 H         2.777000         1.661456        -3.781324
 H         1.900871         0.999404        -5.044173
 H         0.204933         0.114180        -3.271565
 H         2.970256         1.806276        -0.990333
 H         4.183126         0.071043        -2.120973
 H         3.315797        -1.083495        -1.178045
 H         1.630926        -0.830069         0.304668
