19
Iteration:   476
 C         2.769423        -1.682208        -3.828237
 C         2.456972        -0.443003        -3.021647
 C         2.349485         0.880524        -3.752586
 C         1.097080         0.322324        -3.083033
 O         0.908746         0.986622        -1.743156
 C         2.133822         0.902850        -1.077450
 C         2.890464        -0.396465        -1.622048
 C         2.060592         0.680635         0.385640
 O         2.963150         0.107963         1.069703
 H         2.475389        -2.646852        -3.303200
 H         2.223929        -1.708154        -4.854526
 H         3.807402        -1.647444        -3.961999
 H         2.692087         1.811232        -3.282724
 H         2.581034         0.769987        -4.832705
 H         0.174842        -0.013542        -3.640696
 H         2.787155         1.788168        -1.259171
 H         4.011625        -0.254824        -1.508932
 H         2.663221        -1.264166        -0.894553
 H         1.160521         1.208743         0.956677
