19
Iteration:  1635charge 0 multiplicity 1
 C         2.658079        -1.730949        -3.829344
 C         2.292895        -0.446483        -3.124907
 C         2.018281         0.784266        -3.983161
 C         1.023906         0.420813        -2.847620
 O         1.217927         1.045920        -1.676397
 C         2.493552         0.814260        -1.067457
 C         3.290578        -0.111896        -1.990181
 C         2.156192         0.115320         0.332300
 O         2.508188         0.483769         1.498728
 H         3.566712        -1.375403        -4.353970
 H         2.946904        -2.627694        -3.114785
 H         1.836786        -2.074601        -4.523738
 H         2.712377         1.672131        -3.756460
 H         1.732652         0.489375        -4.939141
 H         0.073420        -0.103415        -3.156220
 H         2.939785         1.800057        -0.826810
 H         4.256970         0.213633        -2.380991
 H         3.371716        -1.101601        -1.459799
 H         1.360935        -0.759162         0.149554
