19
Iteration:   185charge 0 multiplicity 1
 C         2.546131        -1.631104        -4.159900
 C         2.381354        -0.428090        -3.170298
 C         2.333711         0.907493        -3.805288
 C         1.122419         0.354763        -2.923605
 O         1.095240         0.886773        -1.577775
 C         2.428269         0.652389        -1.024819
 C         3.039172        -0.520057        -1.850333
 C         2.327540         0.171391         0.413763
 O         2.421993         0.939464         1.414590
 H         2.225187        -2.706548        -3.612613
 H         1.977009        -1.500493        -5.012055
 H         3.570867        -1.763935        -4.558055
 H         2.742106         1.847118        -3.456466
 H         2.460003         0.814917        -4.880357
 H         0.220436        -0.035314        -3.413482
 H         2.953973         1.606579        -0.984721
 H         4.101628        -0.426474        -1.855931
 H         2.666590        -1.443961        -1.319920
 H         2.275323        -0.931634         0.621792
