19
Iteration:  4679
 C         2.436411        -1.770120        -3.878248
 C         2.429737        -0.412656        -3.211669
 C         2.308515         0.843537        -3.986726
 C         1.150647         0.443722        -3.073062
 O         1.088575         0.932426        -1.692908
 C         2.339892         0.717391        -0.973012
 C         3.114066        -0.266744        -1.856655
 C         1.999250         0.280720         0.485671
 O         2.784502         0.561951         1.482608
 H         3.479754        -1.912494        -4.321228
 H         2.084910        -2.590332        -3.271502
 H         1.764015        -1.653478        -4.787509
 H         2.962737         1.570231        -3.567293
 H         2.023657         0.931811        -4.998385
 H         0.242720         0.162644        -3.519756
 H         2.969963         1.571326        -0.989096
 H         4.051977         0.292097        -2.034475
 H         3.514768        -1.165402        -1.348171
 H         1.217527        -0.399581         0.794386
