19
Iteration:  2324charge 0 multiplicity 1
 C         2.578052        -1.711342        -3.757619
 C         2.494755        -0.439196        -3.026454
 C         2.169700         0.720805        -3.957252
 C         1.165215         0.287397        -2.913871
 O         1.067174         1.035558        -1.726766
 C         2.202556         0.973128        -0.994905
 C         3.184485        -0.071656        -1.734650
 C         1.950166         0.333545         0.325497
 O         2.863777         0.216751         1.130083
 H         3.488635        -1.752413        -4.334732
 H         2.251143        -2.685459        -3.192148
 H         1.893966        -1.577127        -4.619910
 H         2.823489         1.648475        -3.883180
 H         2.054857         0.529865        -5.005778
 H         0.172505        -0.042873        -3.144037
 H         2.651694         1.976494        -0.870712
 H         4.205262         0.386715        -1.647443
 H         3.304554        -0.816941        -0.921254
 H         0.947546        -0.077897         0.532435
