19
Iteration:  3173charge 0 multiplicity 1
 C         2.560129        -1.724918        -3.699668
 C         2.471615        -0.329307        -3.028167
 C         2.082266         0.729182        -3.991865
 C         1.143270         0.145607        -2.874547
 O         1.035405         0.958661        -1.754155
 C         2.234724         1.132984        -1.002794
 C         3.337103         0.189973        -1.771645
 C         2.010782         0.507353         0.421824
 O         2.852103        -0.163412         1.051568
 H         3.510980        -2.171735        -3.706653
 H         2.051865        -2.522451        -3.097948
 H         2.050106        -1.667922        -4.633829
 H         2.321151         1.735937        -3.890719
 H         1.970303         0.372907        -5.080561
 H         0.304334        -0.575654        -3.044443
 H         2.558170         2.136603        -0.896876
 H         4.077190         0.795323        -2.048562
 H         3.564299        -0.653930        -1.204468
 H         0.943250         0.743349         0.859103
