19
Iteration:   515
 C         2.594039        -1.693642        -3.953090
 C         2.469740        -0.438406        -3.137351
 C         2.293134         0.937692        -3.879383
 C         1.209664         0.359425        -3.028533
 O         0.987659         0.732097        -1.637671
 C         2.322806         0.822034        -1.100985
 C         3.079701        -0.381852        -1.721185
 C         2.080365         0.789902         0.425758
 O         2.687599         0.224926         1.368633
 H         2.148811        -2.562644        -3.451069
 H         2.202357        -1.668423        -4.943069
 H         3.752407        -1.828790        -4.239083
 H         2.761957         1.918653        -3.673191
 H         2.200151         0.879001        -4.931850
 H         0.164021         0.125924        -3.378888
 H         2.715435         1.886587        -1.290877
 H         4.146658        -0.152368        -1.794872
 H         2.886405        -1.306642        -1.248773
 H         1.245460         1.380439         0.662138
