19
Iteration:  1254
 C         2.680176        -1.640528        -4.179594
 C         2.296583        -0.543162        -3.184460
 C         2.224601         0.990515        -3.863023
 C         1.109934         0.371805        -2.989498
 O         1.062841         0.839098        -1.616104
 C         2.346933         0.639670        -0.989199
 C         2.989639        -0.536029        -1.758341
 C         2.032292         0.506347         0.494451
 O         2.886734         0.679334         1.406493
 H         3.633702        -1.426282        -4.772199
 H         2.932295        -2.581216        -3.606972
 H         1.923070        -1.906721        -4.917272
 H         2.867199         1.807068        -3.393823
 H         2.136730         0.967187        -4.927994
 H         0.109486         0.066041        -3.348476
 H         2.812948         1.662741        -1.087368
 H         4.077564        -0.525540        -1.677248
 H         2.810445        -1.530964        -1.351562
 H         0.966392         0.455485         0.742520
