19
Iteration:  2214
 C         2.509466        -1.818080        -3.766632
 C         2.498541        -0.468106        -3.072550
 C         2.112945         0.755237        -3.874349
 C         1.105077         0.305100        -2.890367
 O         1.131468         1.185011        -1.772421
 C         2.260942         0.922964        -1.006110
 C         3.353307         0.015393        -1.890070
 C         2.079610         0.111224         0.291932
 O         2.665630         0.329513         1.298979
 H         3.498242        -2.000896        -4.176965
 H         2.090692        -2.658385        -3.104677
 H         1.773369        -1.833094        -4.546325
 H         2.431619         1.765634        -3.531726
 H         1.783951         0.609099        -4.888859
 H         0.188503        -0.240371        -3.046852
 H         2.772033         1.839197        -0.689357
 H         4.287945         0.595450        -1.959034
 H         3.703992        -0.784506        -1.192500
 H         1.303152        -0.660712        -0.132500
