19
Iteration:  2376charge 0 multiplicity 1
 C         2.679035        -1.765363        -3.721325
 C         2.400519        -0.417975        -3.212099
 C         2.193374         0.917301        -3.913215
 C         1.098475         0.377202        -3.049860
 O         0.970398         0.853685        -1.760427
 C         2.305160         0.836010        -0.991824
 C         3.116022        -0.216583        -1.901945
 C         2.052541         0.639151         0.491762
 O         2.863170         0.162711         1.321335
 H         3.817495        -1.829630        -3.992228
 H         2.354172        -2.495909        -2.946388
 H         2.114839        -2.191194        -4.533307
 H         2.603851         1.892992        -3.573168
 H         1.977116         0.895722        -4.912012
 H         0.214343         0.051750        -3.542336
 H         2.671532         1.866665        -1.120179
 H         4.168766         0.032427        -1.956517
 H         3.213611        -1.073296        -1.105719
 H         1.009728         0.882528         0.944569
