19
Iteration:  1892charge 0 multiplicity 1
 C         2.511696        -1.577565        -3.974109
 C         2.497492        -0.393017        -3.124645
 C         2.318769         0.916146        -3.849189
 C         1.142948         0.320496        -2.959311
 O         0.982272         0.634420        -1.631667
 C         2.298852         0.788750        -1.081731
 C         3.111205        -0.314505        -1.711266
 C         2.034604         0.454671         0.428250
 O         2.843290         0.550998         1.271136
 H         3.579113        -1.834840        -4.347502
 H         2.035298        -2.396788        -3.460011
 H         1.880405        -1.512739        -4.938889
 H         2.927756         1.731540        -3.528619
 H         2.120345         0.769409        -4.926763
 H         0.154861         0.119893        -3.337400
 H         2.668933         1.861189        -1.307735
 H         4.205813        -0.170100        -1.739118
 H         2.907836        -1.247787        -1.135721
 H         0.952816         0.111894         0.421592
