19
Iteration:  3117charge 0 multiplicity 1
 C         2.860599        -1.745633        -3.515080
 C         2.358516        -0.350909        -3.110652
 C         1.964161         0.806800        -4.083965
 C         1.055924         0.353067        -2.997078
 O         1.035242         0.972259        -1.670071
 C         2.299096         1.019544        -1.005593
 C         3.133630         0.003759        -1.841136
 C         2.081932         0.501174         0.367208
 O         2.865974        -0.118376         1.175501
 H         3.907708        -1.734409        -3.580366
 H         2.237293        -2.494836        -2.993923
 H         2.518305        -1.840978        -4.545402
 H         2.557960         1.762853        -4.107635
 H         1.492582         0.605910        -5.022631
 H         0.142186        -0.105303        -3.319472
 H         2.782743         1.993422        -0.971649
 H         4.116502         0.241151        -1.896698
 H         3.349262        -0.917675        -1.321760
 H         1.054676         0.503139         0.565742
