19
Iteration:   616charge 0 multiplicity 1
 C         2.676054        -1.730801        -3.860873
 C         2.450337        -0.461014        -3.094768
 C         2.283002         0.851206        -3.933084
 C         1.145706         0.483548        -3.044295
 O         1.017512         1.061960        -1.782481
 C         2.178073         0.811200        -1.040695
 C         3.022157        -0.333993        -1.638030
 C         1.980785         0.368549         0.469442
 O         2.915327         0.313810         1.223731
 H         2.465368        -2.572444        -3.107377
 H         1.943148        -2.027410        -4.673744
 H         3.792450        -1.755332        -4.184197
 H         2.877917         1.622676        -3.501069
 H         2.232783         0.878859        -5.032544
 H         0.203120         0.254829        -3.516664
 H         2.679041         1.798544        -0.814745
 H         4.111645        -0.186235        -1.384122
 H         2.771531        -1.276246        -1.156365
 H         0.791698         0.130964         0.671576
