19
Iteration:  2216
 C         2.515558        -1.823224        -3.772897
 C         2.493362        -0.462084        -3.073864
 C         2.105514         0.753903        -3.896522
 C         1.108095         0.291419        -2.895947
 O         1.134829         1.178724        -1.778464
 C         2.253437         0.934289        -0.995996
 C         3.351058         0.007274        -1.899049
 C         2.079577         0.114573         0.303086
 O         2.667852         0.323733         1.306530
 H         3.483587        -2.032395        -4.109122
 H         2.096842        -2.620627        -3.094563
 H         1.722013        -1.792745        -4.521250
 H         2.483786         1.818843        -3.445520
 H         1.849151         0.629600        -4.949580
 H         0.159395        -0.197826        -2.992569
 H         2.832113         1.840102        -0.684692
 H         4.289209         0.670079        -1.926008
 H         3.677508        -0.744918        -1.215621
 H         1.309601        -0.656818        -0.079217
