19
Iteration:   870charge 0 multiplicity 1
 C         2.428790        -1.712268        -3.923613
 C         2.471692        -0.388067        -3.175990
 C         2.365671         0.954588        -3.749205
 C         1.250089         0.376623        -3.025449
 O         1.016109         0.870656        -1.690144
 C         2.232553         0.637628        -1.026939
 C         3.183626        -0.353102        -1.808716
 C         1.969436         0.371193         0.427124
 O         2.803199         0.567546         1.289910
 H         1.354143        -2.135719        -3.812970
 H         2.512608        -1.663142        -5.080951
 H         3.283112        -2.300296        -3.639349
 H         2.897368         1.810303        -3.294226
 H         2.231460         1.184228        -4.794388
 H         0.328127         0.062987        -3.436072
 H         2.880266         1.582515        -0.994001
 H         4.212071        -0.011403        -1.792235
 H         3.053260        -1.337089        -1.309812
 H         0.943397        -0.098554         0.612616
