19
Iteration:  2623charge 0 multiplicity 1
 C         2.559811        -1.709454        -3.730448
 C         2.431767        -0.385650        -3.084046
 C         2.152319         0.808724        -3.992143
 C         1.218924         0.351845        -2.973129
 O         1.024438         1.008947        -1.721154
 C         2.271445         0.969229        -1.030472
 C         3.203360        -0.201327        -1.736690
 C         2.009796         0.253051         0.318861
 O         2.843715         0.312252         1.279781
 H         3.443415        -2.065609        -4.100549
 H         2.201905        -2.488432        -3.005681
 H         1.990242        -1.728702        -4.673785
 H         2.603808         1.800580        -3.757352
 H         1.776479         0.559687        -5.039629
 H         0.217037         0.000248        -3.284836
 H         2.739007         1.953362        -0.961102
 H         4.188950         0.246881        -1.834504
 H         3.284492        -1.176135        -1.288005
 H         1.123789        -0.531938         0.405025
