19
Iteration:  4439charge 0 multiplicity 1
 C         2.555907        -1.698722        -3.930547
 C         2.448544        -0.414935        -3.162066
 C         2.216495         0.928104        -3.850310
 C         1.134887         0.328371        -2.938106
 O         1.088104         0.997752        -1.705287
 C         2.394124         0.788971        -1.027942
 C         3.044854        -0.447088        -1.726104
 C         2.057808         0.376136         0.333976
 O         2.780998         0.497476         1.312848
 H         3.539472        -1.923067        -4.423028
 H         2.450243        -2.501082        -3.228428
 H         1.706298        -1.786385        -4.607548
 H         2.464107         1.987270        -3.432729
 H         2.043504         0.679608        -4.915496
 H         0.077829         0.018978        -3.243495
 H         3.154943         1.647958        -1.051160
 H         4.094413        -0.152470        -1.673643
 H         2.876830        -1.321803        -1.151164
 H         1.084504        -0.153464         0.279765
