19
Iteration:  4794charge 0 multiplicity 1
 C         2.427625        -1.695157        -3.945644
 C         2.409871        -0.460623        -3.125086
 C         2.194375         0.847965        -3.911631
 C         1.155891         0.324492        -2.946033
 O         1.261244         1.104956        -1.765483
 C         2.301304         0.629318        -0.987892
 C         3.256745        -0.306413        -1.789475
 C         1.989281         0.205498         0.383119
 O         2.683398         0.605903         1.402838
 H         3.392189        -1.667027        -4.382430
 H         2.381699        -2.480169        -3.159826
 H         1.673212        -1.805163        -4.688039
 H         2.727821         1.791257        -3.598035
 H         1.760505         0.800886        -4.983808
 H         0.069584         0.018452        -3.065182
 H         2.940913         1.551942        -0.740975
 H         4.219517         0.235384        -1.938004
 H         3.559595        -1.302720        -1.536160
 H         0.968494        -0.307468         0.429302
