19
Iteration:   335
 C         2.555762        -1.719814        -3.927769
 C         2.397638        -0.429431        -3.256037
 C         2.186693         0.939308        -3.927770
 C         1.180519         0.409402        -2.916487
 O         1.218891         1.052041        -1.636090
 C         2.457655         0.613044        -0.979516
 C         3.121689        -0.407176        -1.969437
 C         2.135349         0.095215         0.453535
 O         2.443060         0.793709         1.434174
 H         2.393411        -2.547693        -3.284058
 H         1.800462        -1.953954        -4.771148
 H         3.645382        -1.691558        -4.325445
 H         2.791777         1.766032        -3.527488
 H         1.971724         0.839330        -4.950829
 H         0.140995        -0.010877        -3.133054
 H         3.067249         1.524309        -0.812528
 H         4.183256        -0.447060        -2.136333
 H         2.938559        -1.342204        -1.524301
 H         1.670602        -0.911488         0.643916
