19
Iteration:  4141charge 0 multiplicity 1
 C         2.561337        -1.705669        -3.967007
 C         2.460929        -0.405351        -3.148073
 C         2.272769         0.960698        -3.839439
 C         1.191606         0.415586        -3.007093
 O         1.033805         0.771906        -1.669708
 C         2.300874         0.822359        -1.062480
 C         2.914409        -0.435906        -1.723067
 C         2.066395         0.431812         0.470247
 O         2.893563         0.550541         1.295545
 H         3.632613        -1.836333        -4.299151
 H         2.179398        -2.671856        -3.704929
 H         1.933422        -1.520351        -4.807684
 H         2.735733         1.969527        -3.457394
 H         2.034592         0.923321        -4.877521
 H         0.200717         0.057578        -3.315171
 H         2.951588         1.723135        -1.176813
 H         4.056805        -0.419776        -1.687922
 H         2.674152        -1.395121        -1.263987
 H         1.172769        -0.245562         0.565307
