19
Iteration:   714
 C         2.485964        -1.649797        -4.032243
 C         2.463638        -0.457042        -3.147828
 C         2.308364         1.011270        -3.889731
 C         1.203727         0.389645        -3.019100
 O         1.031202         0.811865        -1.714428
 C         2.272497         0.608947        -1.017478
 C         3.170513        -0.451412        -1.724195
 C         1.990416         0.553612         0.500891
 O         2.768048         0.526164         1.384217
 H         1.780885        -2.379305        -3.573197
 H         2.053997        -1.465609        -4.989225
 H         3.432665        -2.277650        -4.006461
 H         3.037916         1.816245        -3.611859
 H         2.156996         0.825118        -4.932161
 H         0.347981         0.110771        -3.534854
 H         2.964697         1.508998        -0.979877
 H         4.236689        -0.176140        -1.904022
 H         3.246841        -1.360047        -1.220041
 H         0.835808         0.667934         0.657597
