19
Iteration:  4206
 C         2.393860        -1.782795        -4.038932
 C         2.412609        -0.444085        -3.187731
 C         2.348152         0.887126        -3.858439
 C         1.159855         0.447155        -2.935640
 O         1.022276         0.928798        -1.620489
 C         2.311598         0.642276        -0.992091
 C         3.194772        -0.257019        -1.775783
 C         2.064903         0.162505         0.413114
 O         2.764389         0.713316         1.318458
 H         3.444381        -2.105824        -4.053303
 H         1.919277        -2.620077        -3.519637
 H         1.949582        -1.579804        -5.008014
 H         3.034794         1.649066        -3.374120
 H         1.993290         0.991402        -4.884529
 H         0.197082         0.186891        -3.511322
 H         2.809591         1.626054        -1.116946
 H         4.204390         0.280828        -1.899334
 H         3.531730        -1.140178        -1.261443
 H         1.321795        -0.673544         0.633239
