19
Iteration:   455
 C         2.771785        -1.713074        -3.726127
 C         2.422363        -0.424868        -3.047943
 C         2.394742         0.874847        -3.892825
 C         1.179668         0.449501        -3.066310
 O         0.842714         0.938422        -1.824451
 C         2.139418         0.877600        -1.017212
 C         2.850095        -0.332370        -1.629413
 C         2.024242         0.641508         0.504922
 O         3.045201         0.110757         1.054254
 H         2.608113        -2.711442        -3.209233
 H         2.103319        -1.711825        -4.693523
 H         3.881693        -1.779798        -3.946543
 H         2.897186         1.697892        -3.431138
 H         2.108751         0.749783        -4.975833
 H         0.254634         0.259303        -3.673926
 H         2.586278         1.924017        -1.087773
 H         3.946196        -0.354155        -1.469363
 H         2.510879        -1.284336        -1.114805
 H         1.134236         0.681741         1.072981
