19
Iteration:  1132
 C         2.599809        -1.680675        -3.893491
 C         2.443775        -0.343231        -3.232305
 C         2.149345         0.974570        -3.938327
 C         1.121696         0.299099        -2.932340
 O         1.052758         0.802855        -1.638385
 C         2.374973         0.730721        -1.046714
 C         3.106686        -0.339672        -1.787983
 C         2.089840         0.507932         0.443662
 O         2.797421         0.460608         1.370015
 H         3.453657        -2.181252        -3.638302
 H         1.814420        -2.412525        -3.619701
 H         2.396921        -1.577522        -4.970697
 H         2.556711         1.893338        -3.683860
 H         1.963304         1.040502        -5.042837
 H         0.125554        -0.142958        -3.405992
 H         3.009836         1.606096        -1.215231
 H         4.177775        -0.242830        -1.865906
 H         2.806279        -1.359278        -1.452473
 H         1.088806         0.120138         0.508209
