19
Iteration:  3578
 C         2.585406        -1.639668        -3.914264
 C         2.551307        -0.339917        -3.108789
 C         2.255498         0.932798        -3.873066
 C         1.153592         0.238268        -3.063182
 O         0.899029         0.782101        -1.695010
 C         2.184876         0.858119        -0.986040
 C         3.020867        -0.287845        -1.630191
 C         2.064962         0.401140         0.384406
 O         2.990409         0.427445         1.247942
 H         3.562536        -1.637913        -4.388710
 H         2.403281        -2.531226        -3.238773
 H         1.907798        -1.741206        -4.780053
 H         2.783438         1.929427        -3.634572
 H         2.129297         0.872452        -4.928451
 H         0.170579        -0.186442        -3.370641
 H         2.634808         1.824592        -1.203020
 H         4.060110         0.058404        -1.674642
 H         2.878285        -1.337947        -1.376800
 H         1.069488         0.180798         0.705425
