19
Iteration:  3842charge 0 multiplicity 1
 C         2.600022        -1.758047        -3.785183
 C         2.409840        -0.332423        -3.198340
 C         2.120530         0.895017        -4.028003
 C         1.109128         0.414205        -2.931662
 O         1.141481         0.964692        -1.638728
 C         2.361557         0.765146        -0.990119
 C         3.144901        -0.222647        -1.820573
 C         2.131026         0.160623         0.294256
 O         2.680299         0.511529         1.391720
 H         3.581111        -2.142036        -3.892108
 H         2.101480        -2.553655        -3.170283
 H         2.059173        -1.938876        -4.746293
 H         2.806932         1.734717        -3.906072
 H         1.935111         0.920719        -5.106530
 H         0.064354         0.223666        -3.146264
 H         2.805509         1.791397        -0.856467
 H         4.188142        -0.017871        -1.883619
 H         3.095106        -1.256906        -1.391592
 H         1.315814        -0.691209         0.232818
