19
Iteration:  2341
 C         2.622125        -1.790042        -3.765671
 C         2.465915        -0.331907        -3.062652
 C         2.163459         0.795930        -3.959803
 C         1.159787         0.352389        -3.008068
 O         1.008551         1.007662        -1.753973
 C         2.278884         0.888639        -0.965821
 C         3.170112        -0.127265        -1.694732
 C         1.903928         0.406045         0.436514
 O         2.920454         0.216279         1.151878
 H         3.676141        -1.986394        -4.194718
 H         2.518524        -2.456525        -2.981979
 H         1.899418        -1.909690        -4.565828
 H         2.573630         1.778709        -3.891256
 H         1.859288         0.510362        -4.985643
 H         0.235462        -0.148907        -3.328033
 H         2.718677         1.901093        -0.924426
 H         4.153388         0.212155        -1.917831
 H         3.147540        -1.160629        -1.269826
 H         0.812706         0.094130         0.593722
