19
Iteration:   828
 C         2.438603        -1.686567        -3.928689
 C         2.453441        -0.348938        -3.166729
 C         2.556187         0.968525        -3.809497
 C         1.242127         0.464391        -3.058678
 O         0.894540         0.771546        -1.742116
 C         2.193642         0.724531        -1.025940
 C         2.976590        -0.392013        -1.767158
 C         2.156651         0.256700         0.456677
 O         2.827323         0.640514         1.340225
 H         2.087242        -2.530413        -3.212431
 H         1.708421        -1.948230        -4.769743
 H         3.452489        -1.866769        -4.131603
 H         3.189655         1.711388        -3.362472
 H         2.347910         0.982792        -4.839512
 H         0.338933         0.485818        -3.621828
 H         2.559984         1.761953        -1.112023
 H         3.994076        -0.325850        -1.576171
 H         2.673079        -1.291056        -1.336851
 H         1.515865        -0.662876         0.652808
