19
Iteration:  2044
 C         2.571692        -1.740137        -3.695796
 C         2.425995        -0.312899        -3.186021
 C         2.015165         0.749264        -4.121775
 C         1.181956         0.441957        -2.921095
 O         1.199028         1.004816        -1.616145
 C         2.421761         0.707715        -0.956687
 C         3.241035        -0.094192        -1.926842
 C         2.111050         0.094292         0.369883
 O         2.554678         0.497536         1.371905
 H         3.490669        -1.875451        -4.374212
 H         2.356031        -2.417707        -2.865680
 H         1.850153        -1.849385        -4.594600
 H         2.513444         1.728982        -4.082757
 H         1.568947         0.499047        -5.146333
 H         0.199432         0.058552        -3.031722
 H         2.793166         1.784343        -0.720495
 H         4.202145         0.514902        -2.038780
 H         3.590995        -1.077033        -1.559528
 H         1.376194        -0.806992         0.250040
