19
Iteration:  3519charge 0 multiplicity 1
 C         2.661500        -1.694063        -3.760497
 C         2.407537        -0.369984        -3.105820
 C         2.181775         0.811999        -3.895062
 C         1.045446         0.260560        -2.914603
 O         0.976347         0.966867        -1.733170
 C         2.249196         0.922422        -1.017179
 C         3.210072        -0.091070        -1.887775
 C         1.988303         0.363489         0.380034
 O         2.893198         0.239506         1.263753
 H         3.743423        -1.819051        -4.038458
 H         2.661879        -2.661915        -3.301026
 H         2.134318        -1.796312        -4.703619
 H         2.688230         1.623808        -3.472948
 H         1.979144         0.817705        -4.950413
 H         0.220421        -0.358858        -3.253745
 H         2.839329         1.867330        -0.912733
 H         4.239012         0.260581        -2.051673
 H         3.295111        -1.087597        -1.454337
 H         0.980580         0.153539         0.719958
