19
Iteration:   705charge 0 multiplicity 1
 C         2.475876        -1.705459        -3.906815
 C         2.473252        -0.445615        -3.093571
 C         2.341355         0.969093        -3.826988
 C         1.287219         0.431912        -3.054445
 O         0.961687         0.796857        -1.730778
 C         2.315800         0.659576        -0.965084
 C         3.128100        -0.410460        -1.787075
 C         1.907146         0.532574         0.460087
 O         2.837536         0.482754         1.303553
 H         1.545553        -2.358689        -3.731539
 H         2.212699        -1.356151        -5.014263
 H         3.440198        -2.148569        -4.121213
 H         2.885722         1.921857        -3.529913
 H         2.253294         0.841165        -4.912312
 H         0.351332         0.167188        -3.499325
 H         2.762647         1.664859        -1.184894
 H         4.139369        -0.010354        -1.934911
 H         3.172668        -1.330842        -1.283373
 H         0.930698         0.492598         0.801151
