19
Iteration:  4514charge 0 multiplicity 1
 C         2.469487        -1.707806        -4.038113
 C         2.479292        -0.423017        -3.154680
 C         2.425712         0.911490        -3.778149
 C         1.200111         0.330247        -3.013489
 O         0.965668         0.794960        -1.711576
 C         2.218063         0.803269        -1.016008
 C         2.995339        -0.341120        -1.688392
 C         1.991110         0.579947         0.475782
 O         2.972712         0.432905         1.261186
 H         3.473264        -2.166149        -4.201035
 H         1.927600        -2.425800        -3.472599
 H         1.958562        -1.628815        -4.955560
 H         2.764970         1.890488        -3.296385
 H         1.977711         0.771746        -4.795750
 H         0.310215         0.005488        -3.629484
 H         2.836008         1.743210        -1.061124
 H         4.115109        -0.124613        -1.711584
 H         2.992158        -1.280151        -1.169543
 H         0.912779         0.472540         0.716785
