19
Iteration:   719
 C         2.475699        -1.657400        -4.068921
 C         2.461804        -0.425088        -3.176255
 C         2.313582         0.989112        -3.896721
 C         1.185351         0.362583        -3.016697
 O         1.073223         0.820533        -1.688587
 C         2.277856         0.605893        -1.027424
 C         3.176661        -0.459389        -1.726434
 C         1.973680         0.560760         0.479286
 O         2.763710         0.541108         1.443402
 H         1.895289        -2.448895        -3.468730
 H         2.095460        -1.473631        -5.150000
 H         3.415675        -2.166951        -4.061561
 H         2.990722         1.768226        -3.608576
 H         2.124790         0.904156        -5.001336
 H         0.196070         0.068199        -3.533233
 H         2.889452         1.519865        -0.990761
 H         4.211729        -0.131503        -1.753276
 H         3.116886        -1.520625        -1.235707
 H         0.923518         0.719291         0.592555
