19
Iteration:    35charge 0 multiplicity 1
 C         2.823530        -1.671880        -3.721444
 C         2.400519        -0.400242        -3.095319
 C         2.310582         0.917690        -3.784303
 C         1.143315         0.332483        -3.003598
 O         0.909543         0.884319        -1.749739
 C         2.137390         0.877648        -1.058073
 C         2.900211        -0.262633        -1.727639
 C         2.011274         0.475182         0.351612
 O         3.015384         0.225580         1.115964
 H         2.386055        -2.361191        -3.056279
 H         2.442710        -1.922014        -4.787340
 H         3.907657        -1.810792        -3.654409
 H         2.728791         1.878048        -3.594827
 H         1.904548         0.800454        -4.813733
 H         0.246101         0.170529        -3.564303
 H         2.765807         1.749375        -1.044416
 H         3.973354         0.012705        -1.900436
 H         2.876054        -1.194736        -1.109660
 H         0.873934         0.434918         0.783271
