19
Iteration:  4274charge 0 multiplicity 1
 C         2.492401        -1.733288        -3.959083
 C         2.428212        -0.429887        -3.259973
 C         2.121624         0.870874        -3.879942
 C         1.096797         0.395377        -2.890438
 O         1.247465         1.021960        -1.631604
 C         2.481802         0.676567        -0.995902
 C         3.192033        -0.341365        -1.852765
 C         2.029396         0.244932         0.420088
 O         2.610200         0.634926         1.333503
 H         3.502337        -1.692798        -4.524881
 H         2.662429        -2.557744        -3.300347
 H         1.729654        -1.834986        -4.687347
 H         2.676055         1.787435        -3.669181
 H         1.702251         0.749769        -4.978057
 H         0.105808        -0.014406        -3.162329
 H         3.068727         1.559331        -0.571773
 H         4.299213        -0.256528        -1.720474
 H         2.888522        -1.327859        -1.483923
 H         1.162058        -0.366080         0.547087
