19
Iteration:  2318charge 0 multiplicity 1
 C         2.552776        -1.752634        -3.782189
 C         2.457918        -0.402753        -2.989074
 C         2.194651         0.717641        -3.946745
 C         1.208885         0.271350        -2.914142
 O         1.012518         1.074808        -1.732879
 C         2.219205         0.954877        -0.998610
 C         3.220221        -0.064028        -1.723397
 C         1.966502         0.319877         0.282598
 O         2.877004         0.211796         1.178764
 H         3.571816        -1.823079        -4.271443
 H         2.370122        -2.580543        -3.203270
 H         1.865946        -1.577201        -4.622462
 H         2.592943         1.681418        -3.727167
 H         2.106746         0.484545        -5.085572
 H         0.183367        -0.100050        -3.184370
 H         2.535925         2.007806        -0.874857
 H         4.175071         0.429028        -1.941537
 H         3.294170        -0.910930        -1.039541
 H         0.858717         0.009611         0.334407
