19
Iteration:   318
 C         2.570967        -1.772970        -4.018723
 C         2.369949        -0.408495        -3.189322
 C         2.161428         0.949488        -3.854184
 C         1.087232         0.492227        -2.899742
 O         1.255360         0.985266        -1.583339
 C         2.539415         0.640831        -1.024175
 C         3.141572        -0.481679        -1.815900
 C         2.247884         0.097083         0.331235
 O         2.326767         0.824831         1.364015
 H         2.591954        -2.594285        -3.241126
 H         1.841689        -1.906448        -4.755193
 H         3.532724        -1.908666        -4.475898
 H         2.820259         1.813395        -3.654822
 H         1.710747         0.942731        -4.905296
 H         0.131144         0.500373        -3.374717
 H         3.145756         1.543927        -0.991036
 H         4.229600        -0.235608        -1.775045
 H         2.989190        -1.542196        -1.307811
 H         1.886697        -1.012352         0.308382
