19
Iteration:  3272charge 0 multiplicity 1
 C         2.662862        -1.652969        -3.645732
 C         2.574943        -0.294767        -2.983534
 C         2.017989         0.618325        -4.024930
 C         1.061630         0.216633        -2.845576
 O         1.056180         1.043698        -1.731731
 C         2.274944         1.054515        -0.987334
 C         3.328524         0.078177        -1.779426
 C         1.943361         0.574660         0.386842
 O         2.775267        -0.187452         0.971037
 H         3.404376        -1.744252        -4.455746
 H         2.774841        -2.583372        -2.976678
 H         1.798651        -1.830805        -4.363649
 H         2.361658         1.730276        -4.113575
 H         1.802369         0.074238        -4.907107
 H         0.280244        -0.565858        -2.835337
 H         2.597771         2.117040        -0.805198
 H         4.288088         0.517247        -2.057293
 H         3.530524        -0.725680        -1.046081
 H         1.112684         0.906264         0.937626
