19
Iteration:  3075charge 0 multiplicity 1
 C         2.624380        -1.709909        -3.780577
 C         2.478908        -0.381449        -3.075730
 C         2.075828         0.840397        -3.948731
 C         1.154066         0.204862        -2.899077
 O         1.067898         0.942880        -1.804805
 C         2.216405         0.876324        -0.987896
 C         3.212106         0.023804        -1.720531
 C         1.963172         0.508581         0.472519
 O         2.893578         0.040332         1.097217
 H         3.572485        -1.748668        -4.339194
 H         2.636453        -2.601161        -3.073339
 H         1.791622        -2.001226        -4.417587
 H         2.376328         1.882421        -3.599115
 H         1.818333         0.834503        -5.001988
 H         0.181591        -0.202268        -3.138031
 H         2.596052         1.946019        -0.877509
 H         4.075111         0.619636        -2.063397
 H         3.610630        -0.869590        -1.159873
 H         0.889582         0.784146         0.922949
