19
Iteration:  4249charge 0 multiplicity 1
 C         2.470461        -1.706901        -3.894694
 C         2.449535        -0.406549        -3.197896
 C         2.104448         0.980207        -3.979955
 C         1.156258         0.375286        -2.994047
 O         1.160539         0.914452        -1.643859
 C         2.461114         0.735169        -1.069735
 C         3.113411        -0.424109        -1.790383
 C         2.230719         0.340621         0.341850
 O         2.578446         0.577000         1.520961
 H         3.395373        -1.840936        -4.466945
 H         2.389107        -2.585455        -3.220336
 H         1.678786        -1.640379        -4.689663
 H         2.589701         1.901544        -3.617778
 H         1.998220         0.874508        -5.070564
 H         0.169571        -0.194355        -3.224305
 H         3.232064         1.574060        -1.114888
 H         4.217993        -0.154817        -1.791980
 H         2.908682        -1.422882        -1.459250
 H         1.389300        -0.347678         0.311552
