19
Iteration:  3928charge 0 multiplicity 1
 C         2.526922        -1.774248        -3.831268
 C         2.456841        -0.440245        -3.121886
 C         2.205473         0.792862        -3.960700
 C         1.126172         0.399673        -2.976396
 O         1.026916         0.992581        -1.714361
 C         2.370380         0.845747        -0.988153
 C         3.161438        -0.080366        -1.811953
 C         2.067419         0.325728         0.415776
 O         2.772371         0.301956         1.324504
 H         3.497106        -1.615207        -4.327686
 H         2.520715        -2.760629        -3.254268
 H         1.713498        -1.833889        -4.623777
 H         2.732595         1.793830        -3.787605
 H         1.828489         0.724145        -4.963338
 H         0.143551        -0.000288        -3.191031
 H         2.924395         1.811998        -0.817080
 H         4.184774         0.151902        -2.079127
 H         3.318927        -1.060544        -1.238368
 H         0.997173        -0.012391         0.478368
