19
Iteration:  3497
 C         2.617967        -1.694619        -3.843648
 C         2.528286        -0.388449        -3.017461
 C         2.042540         0.854299        -4.014601
 C         1.132224         0.238932        -2.917622
 O         1.065092         0.938017        -1.723594
 C         2.254248         0.904027        -1.006387
 C         3.271929        -0.035404        -1.672492
 C         1.999372         0.438689         0.336511
 O         2.826968         0.172143         1.232298
 H         3.494886        -2.289018        -4.184544
 H         2.203825        -2.564784        -3.338010
 H         1.931460        -1.532715        -4.683263
 H         2.180311         1.923359        -4.035300
 H         1.766576         0.441258        -4.938000
 H         0.200025        -0.335493        -3.023327
 H         2.673450         1.956769        -1.020824
 H         4.173299         0.500011        -1.985532
 H         3.565618        -0.912082        -1.101981
 H         1.010405        -0.020764         0.462137
