19
Iteration:  2960
 C         2.670899        -1.632483        -4.068515
 C         2.426646        -0.444986        -3.105612
 C         2.184500         0.853732        -3.822154
 C         1.179011         0.308030        -2.946438
 O         0.888493         0.794134        -1.618414
 C         2.200891         0.905001        -1.003890
 C         3.135624        -0.294974        -1.656048
 C         2.047325         0.513416         0.405562
 O         2.929627         0.393393         1.195007
 H         3.748109        -2.025192        -3.861746
 H         1.937113        -2.486392        -3.992255
 H         2.550609        -1.326977        -5.149884
 H         2.763316         1.702218        -3.562561
 H         2.087889         0.679167        -4.894572
 H         0.206596         0.054094        -3.358021
 H         2.756016         1.863847        -1.236357
 H         4.204195         0.036837        -1.808284
 H         3.071861        -1.287734        -1.079795
 H         1.067715         0.036259         0.748788
