19
Iteration:  3630charge 0 multiplicity 1
 C         2.656296        -1.613956        -4.104533
 C         2.403253        -0.465328        -3.154062
 C         2.253095         0.955762        -3.798362
 C         1.138099         0.421002        -3.013128
 O         0.904487         0.651325        -1.583031
 C         2.276279         0.577558        -1.040570
 C         3.093902        -0.395769        -1.806461
 C         2.028266         0.502121         0.497566
 O         2.923476         0.696555         1.333984
 H         3.743727        -1.866939        -4.007917
 H         2.138726        -2.518342        -3.715224
 H         2.318070        -1.401932        -5.092695
 H         2.893849         1.719686        -3.408803
 H         2.186900         1.037337        -4.843248
 H         0.136338         0.299032        -3.439391
 H         2.727325         1.574423        -1.338590
 H         4.179539        -0.317104        -1.779609
 H         2.949748        -1.450128        -1.472305
 H         0.911788         0.321928         0.786207
