19
Iteration:  3604
 C         2.573928        -1.604327        -4.083766
 C         2.497189        -0.486547        -3.078075
 C         2.258968         0.946110        -3.709360
 C         1.193027         0.187853        -3.003671
 O         0.935702         0.779629        -1.668449
 C         2.209624         0.777892        -1.021465
 C         3.071215        -0.334127        -1.717182
 C         1.994934         0.483311         0.503399
 O         2.938616         0.560273         1.180683
 H         3.654900        -1.804684        -4.313832
 H         2.077751        -2.480446        -3.657984
 H         2.035322        -1.370413        -5.071612
 H         2.717484         1.849247        -3.240966
 H         2.316074         1.034244        -4.844344
 H         0.208100         0.025395        -3.419844
 H         2.755212         1.694075        -1.267035
 H         4.098690         0.078966        -1.872184
 H         3.176760        -1.389541        -1.302832
 H         1.009345         0.021517         0.781158
