19
Iteration:   175
 C         2.533712        -1.544247        -4.152740
 C         2.375952        -0.473384        -3.150170
 C         2.297477         0.906138        -3.893333
 C         1.165201         0.336844        -2.993008
 O         1.066029         0.874583        -1.654760
 C         2.428897         0.619111        -0.987037
 C         3.072084        -0.517328        -1.775412
 C         2.304647         0.187296         0.518906
 O         2.470977         0.931060         1.423763
 H         2.287895        -2.663841        -3.601184
 H         1.885753        -1.461744        -4.975382
 H         3.597785        -1.566072        -4.415078
 H         2.881405         1.766618        -3.534861
 H         2.132808         0.844384        -4.978402
 H         0.120512         0.224012        -3.315077
 H         2.975212         1.584957        -1.058850
 H         4.137330        -0.566309        -1.843425
 H         2.801433        -1.482245        -1.334586
 H         2.066591        -0.983701         0.616578
