19
Iteration:  1072charge 0 multiplicity 1
 C         2.630127        -1.710776        -3.953208
 C         2.398596        -0.436319        -3.038442
 C         2.255905         0.787023        -3.935549
 C         1.128572         0.354993        -2.975276
 O         0.935935         1.009090        -1.717902
 C         2.308073         0.897779        -1.031032
 C         3.075535        -0.246816        -1.735934
 C         2.083770         0.440283         0.442993
 O         2.892837         0.260397         1.315533
 H         3.381972        -1.454618        -4.766765
 H         2.995335        -2.508558        -3.316417
 H         1.771956        -2.021026        -4.569104
 H         2.832428         1.758565        -3.756948
 H         1.835924         0.516372        -4.891965
 H         0.178931         0.145478        -3.376435
 H         2.701305         1.950463        -1.149952
 H         4.168989        -0.160664        -1.790212
 H         2.922699        -1.103604        -1.147717
 H         1.009627         0.271382         0.586628
