19
Iteration:  1966
 C         2.629100        -1.740991        -3.774846
 C         2.462776        -0.338704        -3.218512
 C         2.103806         0.867451        -3.994948
 C         1.111533         0.442910        -2.969864
 O         1.077726         0.935205        -1.575295
 C         2.395514         0.797137        -1.070858
 C         3.150458        -0.216963        -1.809840
 C         2.123469         0.174306         0.365505
 O         2.677881         0.497803         1.332861
 H         3.660423        -1.989723        -4.073840
 H         2.454915        -2.520141        -2.987843
 H         1.919901        -1.895470        -4.573644
 H         2.651118         1.772060        -3.953767
 H         1.563585         0.528699        -4.938511
 H         0.092492         0.110832        -3.287518
 H         2.857731         1.791872        -0.982850
 H         4.222726         0.093981        -1.635893
 H         2.976070        -1.229432        -1.422381
 H         1.416664        -0.660750         0.080956
