19
Iteration:  4578
 C         2.626434        -1.792433        -3.958271
 C         2.377339        -0.450052        -3.209673
 C         2.393635         0.904553        -3.899427
 C         1.185878         0.439283        -3.116117
 O         0.865666         0.849565        -1.682668
 C         2.239675         0.820457        -0.938153
 C         2.956617        -0.339697        -1.711057
 C         2.065957         0.514310         0.556932
 O         2.986373         0.412812         1.258956
 H         3.768879        -1.951107        -3.962720
 H         2.156901        -2.698569        -3.408530
 H         2.164432        -1.697016        -4.944554
 H         3.183375         1.687471        -3.563263
 H         1.937932         1.230922        -4.896844
 H         0.209361         0.228504        -3.658233
 H         2.714799         1.791268        -1.041870
 H         4.128397        -0.419176        -1.562530
 H         2.505656        -1.253055        -1.193572
 H         1.077652         0.465228         0.979712
