19
Iteration:  4239charge 0 multiplicity 1
 C         2.422712        -1.686898        -3.945984
 C         2.423419        -0.368732        -3.159997
 C         2.188874         0.894741        -3.924708
 C         1.113049         0.372533        -3.032594
 O         1.135728         0.880565        -1.669272
 C         2.500301         0.748988        -1.090246
 C         3.153493        -0.365049        -1.790950
 C         2.196621         0.287821         0.422974
 O         2.619108         0.595762         1.509551
 H         3.449083        -1.820939        -4.406549
 H         2.126926        -2.554782        -3.353487
 H         1.758067        -1.789324        -4.796397
 H         2.689615         1.839113        -3.662701
 H         2.007418         0.916992        -5.065657
 H         0.039886         0.002572        -3.371331
 H         2.776793         1.825159        -1.197336
 H         4.289372        -0.186993        -1.663139
 H         2.915186        -1.202733        -1.169673
 H         1.515599        -0.502385         0.171679
