19
Iteration:  1026charge 0 multiplicity 1
 C         2.476100        -1.793613        -3.607384
 C         2.500302        -0.330134        -3.148217
 C         2.274444         1.045780        -3.850203
 C         1.182187         0.427592        -3.069160
 O         0.936530         0.828959        -1.710033
 C         2.201565         0.713306        -1.036356
 C         3.248873        -0.178317        -1.801843
 C         1.957509         0.418305         0.369749
 O         2.933012         0.274722         1.148643
 H         2.513484        -1.966210        -4.770040
 H         3.035922        -2.436386        -2.891911
 H         1.480075        -2.108070        -3.695467
 H         2.965984         1.740405        -3.467045
 H         2.190744         1.045516        -4.961552
 H         0.167677         0.061548        -3.545879
 H         2.700978         1.741327        -1.095962
 H         4.221110         0.261819        -1.712097
 H         3.350077        -1.148213        -1.267646
 H         0.997783         0.251098         0.763499
