19
Iteration:  2159
 C         2.605444        -1.843942        -3.629962
 C         2.429075        -0.450491        -3.227797
 C         1.934268         0.927068        -4.084219
 C         1.166059         0.358204        -2.936633
 O         1.132851         1.140889        -1.734238
 C         2.429443         0.852907        -1.018763
 C         3.326750        -0.057451        -1.988565
 C         2.134790         0.125462         0.451341
 O         2.551070         0.329110         1.489169
 H         3.434436        -2.210870        -4.189493
 H         2.548158        -2.493730        -2.679611
 H         1.892410        -2.126883        -4.334372
 H         2.584469         1.742803        -4.104120
 H         1.678031         0.699072        -5.173696
 H         0.180627        -0.021247        -3.268764
 H         2.883378         1.826059        -0.905098
 H         4.245121         0.474480        -2.186585
 H         3.588487        -1.012314        -1.461904
 H         1.332486        -0.588108         0.108214
