19
Iteration:  4909
 C         2.372243        -1.672321        -3.841021
 C         2.402076        -0.382449        -3.155214
 C         2.313373         0.913616        -4.003169
 C         1.191536         0.354241        -2.968968
 O         1.087161         0.880037        -1.671994
 C         2.322103         0.753084        -0.993913
 C         3.169283        -0.245839        -1.765456
 C         2.068324         0.232808         0.371501
 O         2.759230         0.560885         1.365595
 H         3.385451        -2.220772        -3.988264
 H         1.659831        -2.395584        -3.427057
 H         1.983480        -1.601462        -4.936257
 H         2.993983         1.690905        -3.859564
 H         2.220583         0.665005        -5.060738
 H         0.228630        -0.044206        -3.487750
 H         2.877423         1.740462        -1.020211
 H         4.188859         0.102591        -1.759616
 H         3.229120        -1.126115        -1.067167
 H         1.248298        -0.553132         0.451014
