19
Iteration:  2062charge 0 multiplicity 1
 C         2.564847        -1.769905        -3.682461
 C         2.373657        -0.325180        -3.167734
 C         2.016347         0.871770        -4.043808
 C         1.086576         0.360353        -2.938817
 O         1.131444         1.049333        -1.680620
 C         2.495944         0.850855        -1.082347
 C         3.335215        -0.139962        -1.943792
 C         2.179738         0.132788         0.375003
 O         2.510380         0.403702         1.465122
 H         3.528229        -1.892867        -4.096054
 H         2.685967        -2.454779        -2.781484
 H         1.941155        -2.189514        -4.403806
 H         2.570825         1.750562        -4.089136
 H         1.644260         0.503712        -5.088743
 H         0.082956        -0.011417        -3.239223
 H         3.002459         1.688270        -0.748833
 H         4.317385         0.114993        -2.363804
 H         3.355736        -1.021071        -1.327841
 H         1.591126        -0.751131         0.062248
