19
Iteration:  3092charge 0 multiplicity 1
 C         2.750152        -1.707215        -3.625796
 C         2.498597        -0.310867        -3.159334
 C         2.019915         0.794655        -4.040606
 C         1.090462         0.284133        -2.969170
 O         0.953504         1.034563        -1.693289
 C         2.235816         0.896321        -1.013119
 C         3.201829        -0.041049        -1.846495
 C         2.022056         0.481118         0.506149
 O         2.889614        -0.023557         1.144656
 H         3.732937        -1.684907        -4.140967
 H         2.454062        -2.356911        -2.824337
 H         2.047468        -1.953517        -4.460528
 H         2.434118         1.816104        -4.002399
 H         1.927985         0.457476        -5.061203
 H         0.266058        -0.366510        -3.256681
 H         2.746524         1.850053        -0.850202
 H         4.277224         0.229073        -1.787908
 H         3.405511        -0.970509        -1.253845
 H         1.015374         0.771329         0.850534
