19
Iteration:  4773charge 0 multiplicity 1
 C         2.489391        -1.783008        -3.893021
 C         2.394629        -0.430518        -3.178490
 C         2.205155         0.841634        -4.005406
 C         1.141216         0.441564        -2.944113
 O         1.170080         1.038001        -1.644090
 C         2.435658         0.714463        -0.971690
 C         3.205531        -0.279152        -1.899041
 C         1.960878         0.194489         0.456418
 O         2.674105         0.576851         1.391979
 H         3.463972        -1.773216        -4.335242
 H         2.208739        -2.606326        -3.204080
 H         1.856065        -1.607013        -4.720596
 H         2.903048         1.712954        -3.838453
 H         2.082991         0.448992        -5.082673
 H         0.081223         0.160062        -3.224771
 H         2.971889         1.719738        -0.721017
 H         4.292809         0.041479        -2.099612
 H         3.303620        -1.215719        -1.351997
 H         0.963554        -0.361376         0.503684
