19
Iteration:  1858charge 0 multiplicity 1
 C         2.613420        -1.708404        -3.954136
 C         2.500368        -0.384547        -3.330064
 C         2.230657         1.080337        -3.780951
 C         1.181591         0.307393        -3.017812
 O         0.904422         0.673676        -1.707939
 C         2.191926         0.567482        -0.997588
 C         3.104765        -0.446971        -1.777654
 C         1.993422         0.676654         0.531724
 O         2.956784         0.537522         1.287966
 H         3.704806        -2.082796        -4.175199
 H         2.289605        -2.429269        -3.182729
 H         2.000040        -1.768518        -4.898428
 H         2.943128         1.763125        -3.225496
 H         2.224127         1.684493        -4.627766
 H         0.212507         0.067607        -3.566537
 H         2.597153         1.686772        -1.004906
 H         4.197601        -0.261361        -1.578393
 H         2.877099        -1.478727        -1.446971
 H         1.005991         1.068853         0.999015
