19
Iteration:  4659charge 0 multiplicity 1
 C         2.455646        -1.751450        -3.939503
 C         2.384420        -0.451834        -3.154583
 C         2.263240         0.944951        -3.945871
 C         1.194631         0.393387        -3.019221
 O         1.039825         0.893746        -1.738802
 C         2.385567         0.809713        -1.032612
 C         3.179518        -0.335150        -1.828327
 C         2.073281         0.382485         0.434704
 O         2.757862         0.489443         1.523500
 H         3.454441        -1.848569        -4.368176
 H         2.329309        -2.498662        -3.238626
 H         1.783684        -1.963201        -4.788683
 H         2.771165         1.862530        -3.689786
 H         2.104726         0.698175        -4.937777
 H         0.210706         0.170285        -3.310426
 H         2.816905         1.813525        -1.091668
 H         4.224785        -0.267408        -1.886699
 H         2.927272        -1.271253        -1.323444
 H         1.005561         0.014418         0.572879
