19
Iteration:  3418
 C         2.743692        -1.794081        -3.611058
 C         2.526862        -0.406569        -3.132542
 C         2.085448         0.737208        -3.972359
 C         1.106987         0.385218        -2.888712
 O         0.944669         1.054616        -1.643799
 C         2.259875         0.970597        -1.030913
 C         3.141894         0.049282        -1.844659
 C         2.040084         0.440287         0.381030
 O         2.826413        -0.031499         1.106119
 H         3.674255        -1.721538        -4.295685
 H         2.867048        -2.562659        -2.855035
 H         2.112275        -2.206581        -4.509248
 H         2.636633         1.687028        -4.024019
 H         1.776560         0.375176        -5.018363
 H         0.171771        -0.099736        -3.237469
 H         2.716310         2.015618        -0.939628
 H         4.104026         0.548513        -2.039392
 H         3.496497        -0.804050        -1.288144
 H         0.870379         0.548258         0.659810
