19
Iteration:   359charge 0 multiplicity 1
 C         2.453019        -1.683617        -3.997741
 C         2.461577        -0.425398        -3.194317
 C         2.199839         0.893756        -3.968515
 C         1.166002         0.399588        -3.004678
 O         1.160476         0.913323        -1.722955
 C         2.434048         0.678391        -0.950410
 C         3.259000        -0.334928        -1.796447
 C         2.029166         0.243909         0.445084
 O         2.573224         0.669478         1.506285
 H         1.959605        -2.457922        -3.457624
 H         1.772981        -1.649595        -4.876673
 H         3.558807        -1.990036        -4.330462
 H         2.732362         1.834459        -3.755600
 H         1.983689         0.570504        -5.007840
 H         0.065839         0.173776        -3.135536
 H         2.969125         1.613888        -0.877393
 H         4.269818        -0.078744        -2.009521
 H         3.341249        -1.351643        -1.378402
 H         1.200146        -0.497050         0.569243
