19
Iteration:   119
 C         2.555475        -1.671391        -4.038138
 C         2.450984        -0.459303        -3.141820
 C         2.246637         1.057413        -3.694508
 C         1.175642         0.378505        -2.993105
 O         1.078172         0.690139        -1.678633
 C         2.328039         0.624538        -1.097511
 C         3.139526        -0.445683        -1.801580
 C         2.028218         0.502711         0.420297
 O         2.712364         0.684400         1.354933
 H         2.203937        -2.667476        -3.392520
 H         1.868639        -1.608978        -4.839433
 H         3.545127        -1.841332        -4.510351
 H         2.824614         1.823923        -3.230843
 H         2.110868         1.113348        -4.775318
 H         0.182111         0.123789        -3.318344
 H         2.913251         1.553710        -1.314302
 H         4.170448        -0.141378        -1.831524
 H         3.074710        -1.438718        -1.360477
 H         0.988755        -0.006445         0.574455
