19
Iteration:  4535charge 0 multiplicity 1
 C         2.466920        -1.684407        -3.847948
 C         2.485184        -0.399762        -3.057445
 C         2.316884         1.041842        -3.773119
 C         1.203967         0.357437        -3.008822
 O         0.894112         0.787772        -1.739018
 C         2.282752         0.699820        -1.051303
 C         3.115515        -0.432744        -1.676931
 C         2.000964         0.556494         0.385003
 O         2.950499         0.445709         1.110188
 H         3.471881        -2.188436        -4.007488
 H         1.772399        -2.447752        -3.454252
 H         2.049265        -1.392874        -4.782207
 H         2.856342         1.584339        -2.930166
 H         2.456427         1.197774        -4.890063
 H         0.279585         0.099137        -3.611401
 H         2.666930         1.714224        -1.090420
 H         4.288152        -0.390790        -1.631993
 H         2.904301        -1.426990        -1.237252
 H         0.902444         0.590939         0.716903
