19
Iteration:  2235charge 0 multiplicity 1
 C         2.496584        -1.757998        -3.666046
 C         2.437322        -0.372183        -3.127599
 C         2.107012         0.806609        -4.068566
 C         1.144357         0.287454        -2.936628
 O         1.142120         1.082873        -1.762929
 C         2.380438         0.870142        -0.993411
 C         3.240491         0.043172        -1.847760
 C         2.046182         0.156359         0.401766
 O         2.696756         0.287594         1.368608
 H         3.521464        -1.950398        -4.077218
 H         2.117658        -2.587915        -2.977215
 H         1.904229        -1.954063        -4.546749
 H         2.532383         1.767427        -3.917703
 H         1.948669         0.503119        -5.099081
 H         0.290294        -0.276319        -3.280155
 H         2.664584         1.874567        -0.703062
 H         4.136791         0.450205        -2.285708
 H         3.742648        -0.857115        -1.398896
 H         1.115953        -0.551674         0.119739
