19
Iteration:  3176
 C         2.552992        -1.709056        -3.675200
 C         2.475317        -0.320634        -3.069485
 C         2.099174         0.719492        -4.000599
 C         1.132250         0.147192        -2.892119
 O         1.042198         0.949518        -1.736332
 C         2.233682         1.123381        -0.986856
 C         3.318613         0.177230        -1.774995
 C         1.996667         0.550594         0.423496
 O         2.854070        -0.179604         1.056814
 H         3.549273        -2.229895        -3.803714
 H         2.128565        -2.469601        -3.016969
 H         2.041124        -1.690216        -4.649757
 H         2.330131         1.808434        -3.949083
 H         1.952659         0.284129        -5.012360
 H         0.297891        -0.564682        -3.005717
 H         2.528537         2.224064        -0.849689
 H         4.153636         0.868520        -2.119705
 H         3.573273        -0.692541        -1.189403
 H         1.029222         0.611600         0.829577
