19
Iteration:    38
 C         2.792767        -1.635208        -3.699308
 C         2.394647        -0.383145        -3.087552
 C         2.305057         0.909682        -3.776369
 C         1.148713         0.314929        -3.026517
 O         0.915701         0.895739        -1.780288
 C         2.120036         0.832997        -1.051187
 C         2.901782        -0.275490        -1.736799
 C         2.022857         0.468653         0.381833
 O         3.020400         0.243209         1.115177
 H         2.469877        -2.456635        -3.014136
 H         2.440521        -1.830265        -4.879256
 H         3.927369        -1.818462        -3.595536
 H         2.786465         1.890968        -3.568413
 H         2.042031         0.774908        -4.853286
 H         0.177603         0.187140        -3.534254
 H         2.706166         1.740228        -1.079883
 H         3.989932         0.103508        -1.864641
 H         2.854845        -1.286336        -1.152695
 H         1.020964         0.418071         0.786587
