19
Iteration:  1162charge 0 multiplicity 1
 C         2.479925        -1.746503        -3.963693
 C         2.420652        -0.414678        -3.215706
 C         2.340745         0.955374        -3.876697
 C         1.172263         0.432747        -2.976651
 O         0.970088         0.675855        -1.632667
 C         2.205468         0.761582        -1.021670
 C         3.114712        -0.243972        -1.797885
 C         2.083499         0.381142         0.437160
 O         2.894702         0.592553         1.386848
 H         3.363136        -2.374364        -3.753693
 H         1.579175        -2.350129        -3.730996
 H         2.460604        -1.431046        -5.072943
 H         2.995167         1.734759        -3.546414
 H         2.038430         0.908628        -4.968869
 H         0.249138         0.182942        -3.525405
 H         2.744805         1.761401        -1.132529
 H         4.142968         0.098121        -1.926081
 H         3.173470        -1.174905        -1.359487
 H         1.234977        -0.415466         0.601084
