19
Iteration:  2707charge 0 multiplicity 1
 C         2.534734        -1.793065        -3.812591
 C         2.395368        -0.403930        -3.287168
 C         2.062395         0.960518        -4.008033
 C         1.144399         0.390367        -2.954084
 O         1.155180         0.939287        -1.644282
 C         2.440955         0.705828        -0.997743
 C         3.263469        -0.226352        -1.947209
 C         2.100770         0.254829         0.460881
 O         2.595750         0.555366         1.494959
 H         3.581575        -1.748504        -4.302930
 H         2.512247        -2.587828        -3.024998
 H         1.727313        -2.098474        -4.505344
 H         2.743600         1.780681        -3.890722
 H         1.759115         0.850210        -5.026538
 H         0.177745         0.009174        -3.323791
 H         2.900523         1.740201        -0.979455
 H         4.331207         0.198827        -1.895626
 H         3.254702        -1.319814        -1.800094
 H         1.313759        -0.645786         0.361120
