19
Iteration:  4725charge 0 multiplicity 1
 C         2.395639        -1.756979        -3.804962
 C         2.413397        -0.357552        -3.137626
 C         2.286891         0.889975        -3.886358
 C         1.131207         0.368378        -2.984165
 O         1.100048         0.946790        -1.703842
 C         2.389278         0.803331        -1.052330
 C         3.194721        -0.241856        -1.808511
 C         2.198521         0.167357         0.298024
 O         2.642705         0.549154         1.358050
 H         3.402482        -2.137362        -3.813510
 H         1.837128        -2.237268        -3.065610
 H         1.827599        -1.794271        -4.761566
 H         2.644336         1.770882        -3.375179
 H         2.190137         0.896714        -4.939178
 H         0.264332         0.028378        -3.539036
 H         2.818155         1.783082        -0.964356
 H         4.230281        -0.144342        -1.819659
 H         3.043603        -1.181096        -1.215559
 H         1.368431        -0.641329         0.197942
