19
Iteration:  2656
 C         2.538888        -1.701730        -3.922981
 C         2.472180        -0.500925        -3.106948
 C         2.124438         0.782229        -3.900000
 C         1.149836         0.250547        -2.891301
 O         1.100883         1.108424        -1.765951
 C         2.343343         0.924433        -1.032973
 C         3.252464        -0.174964        -1.815335
 C         2.023253         0.252648         0.396317
 O         2.733826         0.380453         1.379718
 H         3.357581        -1.761693        -4.570531
 H         2.400061        -2.625487        -3.299720
 H         1.581930        -1.760476        -4.498834
 H         2.421681         1.785807        -3.652224
 H         1.967993         0.715649        -5.047261
 H         0.152900        -0.205755        -3.100491
 H         2.754339         1.914849        -0.912532
 H         4.235935         0.244933        -1.996589
 H         3.437589        -1.031530        -1.169024
 H         1.111014        -0.339142         0.369546
