19
Iteration:  2813
 C         2.587625        -1.670267        -4.053517
 C         2.473289        -0.311992        -3.230388
 C         2.111005         0.943378        -3.922232
 C         1.148498         0.464001        -2.986774
 O         1.098386         0.744868        -1.618527
 C         2.394327         0.583405        -1.004243
 C         3.118023        -0.454860        -1.810531
 C         2.076993         0.293386         0.479685
 O         2.711547         0.796848         1.473426
 H         3.634378        -1.881803        -4.454712
 H         2.285244        -2.484891        -3.329794
 H         1.872318        -1.703861        -4.908855
 H         2.671757         1.898686        -3.715662
 H         1.922636         0.756133        -5.012287
 H         0.125783         0.122354        -3.290430
 H         2.858994         1.584414        -1.146538
 H         4.210482        -0.416498        -1.956348
 H         2.937200        -1.480695        -1.532117
 H         1.231654        -0.471904         0.677487
