19
Iteration:  4848
 C         2.488600        -1.783141        -3.844290
 C         2.374578        -0.435055        -3.097316
 C         2.220902         0.886031        -3.957289
 C         1.154621         0.510519        -3.040209
 O         1.091922         0.911888        -1.623130
 C         2.484821         0.845373        -1.085089
 C         3.177770        -0.293788        -1.850083
 C         2.120908         0.248533         0.382332
 O         2.610260         0.504551         1.434767
 H         3.425944        -1.920178        -4.292926
 H         2.288421        -2.519103        -3.048606
 H         1.756318        -1.689686        -4.589625
 H         2.953960         1.784886        -3.861704
 H         1.930247         0.525207        -5.008644
 H         0.073253         0.346496        -3.317725
 H         3.036220         1.830620        -1.152836
 H         4.277956        -0.188177        -2.013257
 H         2.945516        -1.261272        -1.310720
 H         1.433147        -0.564332         0.183858
