19
Iteration:  1177
 C         2.433918        -1.692765        -3.980276
 C         2.468340        -0.428680        -3.155751
 C         2.393900         0.959955        -3.803875
 C         1.183926         0.339092        -3.015527
 O         0.842480         0.798654        -1.658432
 C         2.222084         0.668952        -0.964413
 C         3.160398        -0.275808        -1.805108
 C         2.105404         0.221564         0.445369
 O         2.915226         0.709029         1.264829
 H         3.307639        -2.259549        -3.726479
 H         1.650952        -2.430653        -3.694214
 H         2.264931        -1.591584        -5.042363
 H         3.003870         1.789041        -3.384341
 H         2.275297         1.194028        -4.827663
 H         0.209358         0.160809        -3.629312
 H         2.534979         1.701133        -0.950857
 H         4.074889         0.301518        -1.906012
 H         3.335078        -1.276092        -1.302005
 H         1.228832        -0.474214         0.778379
