19
Iteration:  1942
 C         2.644375        -1.696592        -3.801309
 C         2.355643        -0.433453        -3.152097
 C         2.153336         0.925152        -3.949748
 C         1.089116         0.341410        -3.083559
 O         1.080581         1.037750        -1.763165
 C         2.276265         0.705064        -0.971800
 C         3.127594        -0.277670        -1.887023
 C         2.072317         0.165093         0.481601
 O         2.835383         0.580407         1.409128
 H         3.647140        -1.618884        -4.131235
 H         2.578423        -2.675899        -3.175865
 H         2.058182        -1.839859        -4.645388
 H         2.531885         1.840161        -3.348858
 H         2.058762         0.876550        -4.986593
 H         0.075760        -0.166927        -3.255667
 H         2.735286         1.632682        -0.800954
 H         4.181742         0.031819        -2.001764
 H         3.103771        -1.282237        -1.458507
 H         1.373748        -0.682214         0.497078
