19
Iteration:  2825charge 0 multiplicity 1
 C         2.571589        -1.594522        -4.095489
 C         2.441363        -0.439414        -3.188944
 C         2.206887         0.975449        -3.874067
 C         1.110564         0.341598        -2.968420
 O         1.098494         0.790569        -1.613362
 C         2.340944         0.676257        -0.999855
 C         3.097959        -0.480045        -1.759677
 C         2.101138         0.273869         0.500836
 O         2.731026         0.786238         1.340487
 H         3.606049        -1.644440        -4.627426
 H         2.453779        -2.583886        -3.590549
 H         1.842575        -1.499103        -4.925305
 H         2.807325         1.868643        -3.755225
 H         1.845574         0.819128        -4.947833
 H         0.123496        -0.042820        -3.377551
 H         3.009491         1.592450        -0.952009
 H         4.175034        -0.195812        -1.548462
 H         2.859006        -1.414657        -1.250301
 H         1.185700        -0.416162         0.636943
