19
Iteration:  2624charge 0 multiplicity 1
 C         2.557422        -1.706184        -3.735108
 C         2.433961        -0.396107        -3.090127
 C         2.157187         0.807077        -3.990927
 C         1.213672         0.345688        -2.967898
 O         1.028954         1.011323        -1.724644
 C         2.273781         0.971565        -1.027809
 C         3.203831        -0.197129        -1.729994
 C         2.013942         0.258307         0.318605
 O         2.840659         0.310957         1.280726
 H         3.418007        -2.040188        -4.125200
 H         2.197686        -2.467462        -3.048054
 H         1.985146        -1.714392        -4.655628
 H         2.573841         1.795932        -3.779189
 H         1.787272         0.571047        -5.075214
 H         0.201296        -0.021693        -3.247930
 H         2.703638         1.960644        -0.952608
 H         4.175829         0.219503        -1.816568
 H         3.293481        -1.160282        -1.240228
 H         1.133783        -0.552175         0.383267
