19
Iteration:  3105
 C         2.793386        -1.711781        -3.599186
 C         2.472923        -0.284396        -3.123666
 C         1.987030         0.799454        -4.101678
 C         1.068508         0.379433        -2.944093
 O         0.938140         0.998746        -1.713194
 C         2.292973         0.945500        -1.076929
 C         3.168758        -0.044086        -1.777965
 C         2.108530         0.445442         0.414234
 O         2.874679        -0.087040         1.213377
 H         3.850327        -1.903456        -3.554917
 H         2.642501        -2.410888        -2.755036
 H         2.389273        -2.123033        -4.531377
 H         2.413245         1.852458        -4.241353
 H         1.629807         0.345807        -4.971414
 H         0.094143         0.012735        -3.161577
 H         2.618710         1.962293        -1.165843
 H         4.067665         0.398431        -1.948490
 H         3.074859        -0.990168        -1.251458
 H         1.134462         0.645205         0.744875
