19
Iteration:  2447
 C         2.664592        -1.645786        -3.974387
 C         2.508780        -0.411460        -3.091372
 C         2.130904         0.902646        -3.788081
 C         1.175520         0.195218        -2.974803
 O         0.985470         0.771068        -1.705091
 C         2.270278         0.836909        -1.041621
 C         3.047446        -0.327167        -1.671442
 C         2.174769         0.880231         0.410928
 O         2.762097         0.169384         1.183794
 H         3.704660        -1.781339        -4.151818
 H         2.271348        -2.589811        -3.441251
 H         2.056166        -1.740664        -4.913262
 H         2.547442         1.821777        -3.277340
 H         1.856296         0.926172        -4.891400
 H         0.199682        -0.188901        -3.340477
 H         2.794243         1.783051        -1.338905
 H         4.161066        -0.166775        -1.661996
 H         2.929033        -1.277314        -1.237115
 H         1.475355         1.726293         0.822462
