19
Iteration:  1846
 C         2.687580        -1.717090        -4.032523
 C         2.455519        -0.375811        -3.250006
 C         2.310362         1.036274        -3.780935
 C         1.166672         0.341177        -3.055271
 O         0.923721         0.683097        -1.653033
 C         2.081057         0.584391        -0.934982
 C         3.010060        -0.415212        -1.790010
 C         2.003811         0.698875         0.518902
 O         3.010085         0.513328         1.281176
 H         3.803095        -1.865307        -4.244826
 H         2.235578        -2.533314        -3.399014
 H         2.147032        -1.845887        -4.966071
 H         2.922679         1.755491        -3.129156
 H         2.073532         1.026800        -4.768814
 H         0.218093         0.077071        -3.636459
 H         2.738601         1.558996        -1.117818
 H         4.094753        -0.152224        -1.670605
 H         2.862776        -1.442653        -1.415100
 H         1.008091         1.182870         0.856907
