19
Iteration:  4715
 C         2.388060        -1.726163        -3.775999
 C         2.462473        -0.441770        -3.141520
 C         2.257109         0.898432        -3.876604
 C         1.207239         0.425623        -2.990474
 O         1.073965         0.958492        -1.704339
 C         2.373357         0.742405        -1.009791
 C         3.191201        -0.267700        -1.772456
 C         2.075855         0.169442         0.304789
 O         2.686590         0.585199         1.289633
 H         3.337863        -2.172877        -3.953546
 H         1.847239        -2.465129        -3.233303
 H         1.897225        -1.655019        -4.754677
 H         2.796201         1.797427        -3.527272
 H         1.997141         1.009258        -4.922809
 H         0.177825         0.097305        -3.255382
 H         2.903901         1.691721        -0.870637
 H         4.130960         0.196669        -1.891661
 H         3.319309        -1.260435        -1.374814
 H         1.583986        -0.790909         0.225371
