19
Iteration:  2858
 C         2.588574        -1.556408        -4.162749
 C         2.448903        -0.549292        -3.094961
 C         2.313430         0.928112        -3.622532
 C         1.067712         0.311131        -3.029531
 O         0.930632         0.801652        -1.698380
 C         2.251759         0.738634        -1.064316
 C         3.039331        -0.486954        -1.699977
 C         2.170828         0.370201         0.409354
 O         2.854022         0.726048         1.298246
 H         3.616332        -1.476945        -4.791574
 H         2.586432        -2.562137        -3.721388
 H         1.813187        -1.489794        -4.949583
 H         2.802569         1.733653        -3.156791
 H         2.297977         0.990861        -4.793242
 H        -0.011385         0.094882        -3.443745
 H         2.795760         1.746290        -0.970536
 H         4.123525        -0.121243        -1.476956
 H         3.028782        -1.403836        -1.130290
 H         1.446769        -0.275493         0.675723
