19
Iteration:  3565charge 0 multiplicity 1
 C         2.690459        -1.653823        -3.818296
 C         2.449102        -0.343955        -3.159166
 C         2.241368         0.937769        -3.966081
 C         1.170766         0.354795        -2.978372
 O         0.909590         0.801386        -1.641478
 C         2.179521         0.781566        -1.055248
 C         3.011401        -0.263217        -1.788157
 C         2.035282         0.438900         0.494452
 O         2.972367         0.374707         1.214300
 H         3.701769        -1.802490        -4.243042
 H         2.675913        -2.420332        -3.020464
 H         1.876612        -1.832942        -4.476452
 H         2.669943         1.825926        -3.704130
 H         2.118407         0.678473        -5.039401
 H         0.330419         0.016483        -3.538061
 H         2.717504         1.757629        -1.090138
 H         4.078428        -0.084576        -1.629099
 H         2.933936        -1.157586        -1.169322
 H         1.075527        -0.080832         0.654369
