19
Iteration:  4683
 C         2.418874        -1.764245        -3.894040
 C         2.421470        -0.419361        -3.226009
 C         2.325060         0.816008        -3.971350
 C         1.178237         0.449058        -3.054683
 O         1.053882         0.954411        -1.694553
 C         2.354513         0.680268        -0.946857
 C         3.158083        -0.220079        -1.841894
 C         1.996442         0.230139         0.469189
 O         2.785861         0.588006         1.447455
 H         3.374422        -1.993281        -4.275523
 H         2.090614        -2.558884        -3.236881
 H         1.868837        -1.793856        -4.842531
 H         2.942492         1.655186        -3.563471
 H         2.009293         0.942346        -5.011719
 H         0.133394         0.201096        -3.395430
 H         2.929326         1.660723        -0.856340
 H         4.086729         0.273936        -1.989115
 H         3.401300        -1.188616        -1.395091
 H         1.121032        -0.391036         0.772818
