19
Iteration:   913charge 0 multiplicity 1
 C         2.646098        -1.668195        -4.014767
 C         2.490114        -0.439728        -3.192330
 C         2.149802         0.783671        -3.984886
 C         1.111428         0.408478        -2.943615
 O         1.100589         0.997252        -1.659987
 C         2.384733         0.816971        -1.033943
 C         3.025715        -0.387971        -1.768416
 C         2.024505         0.467434         0.452699
 O         2.763834         0.384916         1.480726
 H         1.667287        -2.145991        -4.238652
 H         3.218709        -1.359816        -4.933610
 H         3.379080        -2.356020        -3.599451
 H         2.794327         1.675607        -3.890976
 H         1.864616         0.783572        -5.010576
 H         0.222062        -0.012900        -3.277313
 H         2.989784         1.750653        -1.068949
 H         4.133862        -0.323089        -1.616815
 H         2.657535        -1.414120        -1.386615
 H         0.880131         0.264498         0.386617
