19
Iteration:  3930
 C         2.544996        -1.779956        -3.818068
 C         2.432797        -0.426854        -3.110805
 C         2.195259         0.819355        -3.954536
 C         1.139791         0.389774        -2.964894
 O         1.044177         0.989655        -1.734697
 C         2.358900         0.835584        -0.984893
 C         3.153977        -0.094980        -1.832146
 C         2.061859         0.321356         0.409382
 O         2.783207         0.304836         1.321036
 H         3.477097        -1.634389        -4.279679
 H         2.491844        -2.746054        -3.237933
 H         1.711583        -1.836256        -4.595242
 H         2.685914         1.832880        -3.804175
 H         1.897578         0.744851        -4.943533
 H         0.120359        -0.033346        -3.180711
 H         2.899926         1.810195        -0.772893
 H         4.195247         0.131066        -2.020815
 H         3.256535        -1.052250        -1.250740
 H         1.001653         0.041003         0.437756
