19
Iteration:  2886
 C         2.642622        -1.604588        -4.018116
 C         2.478662        -0.355587        -3.209231
 C         2.375107         1.005550        -3.812535
 C         1.123690         0.394367        -3.011563
 O         0.913514         0.641054        -1.593317
 C         2.208181         0.672546        -1.007387
 C         2.950087        -0.459341        -1.837276
 C         2.034170         0.411969         0.509066
 O         2.970938         0.698617         1.251239
 H         3.646654        -1.654000        -4.343297
 H         2.346089        -2.508550        -3.428771
 H         1.937833        -1.705647        -4.861283
 H         3.084476         1.769694        -3.443817
 H         2.193225         1.013272        -4.886330
 H         0.178247        -0.049266        -3.316857
 H         2.630991         1.682401        -0.985543
 H         3.976120        -0.400954        -1.578330
 H         2.620411        -1.484837        -1.479705
 H         1.112269        -0.129145         1.101699
