19
Iteration:   625charge 0 multiplicity 1
 C         2.673800        -1.759697        -3.767504
 C         2.412293        -0.416452        -3.119818
 C         2.392066         0.878202        -3.890133
 C         1.171073         0.436770        -3.058907
 O         1.013874         1.095477        -1.769651
 C         2.122682         0.789886        -0.969448
 C         2.952414        -0.322103        -1.690123
 C         1.930583         0.349219         0.461321
 O         2.960378         0.321171         1.140418
 H         2.633784        -2.611893        -3.109125
 H         2.079091        -1.795564        -4.653510
 H         3.821606        -1.831234        -4.121967
 H         2.863752         1.774792        -3.635029
 H         2.137012         0.771822        -4.948045
 H         0.142734         0.134065        -3.410023
 H         2.754729         1.722037        -0.955713
 H         4.041952        -0.229909        -1.625860
 H         2.715116        -1.247327        -1.292276
 H         0.989174        -0.075783         0.887850
