19
Iteration:    44
 C         2.759338        -1.630874        -3.688791
 C         2.401847        -0.370236        -3.077705
 C         2.290374         0.917322        -3.808585
 C         1.111265         0.321581        -3.074026
 O         0.909434         0.917037        -1.807566
 C         2.108524         0.759274        -1.042463
 C         2.953454        -0.296528        -1.720653
 C         2.061030         0.458432         0.450560
 O         3.016962         0.276344         1.101946
 H         2.487307        -2.532035        -3.129530
 H         2.524452        -1.649217        -4.676383
 H         3.823215        -1.703086        -3.638927
 H         2.829981         1.778737        -3.465759
 H         2.365880         0.787161        -4.888745
 H         0.149653         0.114125        -3.503975
 H         2.601901         1.778222        -1.151627
 H         3.947658         0.067709        -1.671996
 H         2.860692        -1.263070        -1.304179
 H         0.979401         0.355750         0.910669
