19
Iteration:  4586
 C         2.600204        -1.737142        -3.993013
 C         2.373848        -0.478560        -3.176700
 C         2.402770         0.888947        -3.871258
 C         1.186187         0.394861        -3.055267
 O         0.924077         0.918295        -1.733468
 C         2.216707         0.813509        -1.016946
 C         2.914408        -0.350508        -1.726661
 C         1.996968         0.508838         0.560441
 O         3.039634         0.405692         1.333472
 H         3.707164        -1.709840        -4.072739
 H         2.309580        -2.716224        -3.425726
 H         2.291335        -1.852736        -5.072645
 H         3.017577         1.809322        -3.604407
 H         1.943942         0.728594        -4.826877
 H         0.284964         0.204375        -3.576268
 H         2.597168         1.878665        -1.094104
 H         4.044347        -0.287789        -1.682850
 H         2.742536        -1.364068        -1.260069
 H         0.976520         0.389174         1.030178
