19
Iteration:  2293charge 0 multiplicity 1
 C         2.583749        -1.800888        -3.649675
 C         2.434883        -0.398994        -3.117449
 C         2.107248         0.835295        -3.914858
 C         1.105859         0.304785        -2.996520
 O         1.060881         1.045925        -1.793196
 C         2.304283         0.896348        -1.052867
 C         3.282823        -0.047592        -1.876296
 C         2.014665         0.297491         0.407752
 O         2.792652         0.202452         1.303488
 H         3.551054        -1.992724        -3.982845
 H         2.425250        -2.563391        -2.851880
 H         1.830012        -1.776275        -4.450126
 H         2.768955         1.694689        -3.475334
 H         2.072900         0.753544        -5.037082
 H         0.093074         0.001757        -3.262319
 H         2.669552         1.941093        -0.960768
 H         4.144861         0.621235        -2.171964
 H         3.487084        -0.847592        -1.214429
 H         0.924218        -0.106771         0.298058
