19
Iteration:   234
 C         2.359839        -1.614875        -4.035596
 C         2.470889        -0.355008        -3.249847
 C         2.269259         0.953662        -3.852225
 C         1.197595         0.453105        -2.900321
 O         1.262282         0.636396        -1.465593
 C         2.554910         0.478861        -0.994418
 C         3.206854        -0.452617        -1.984117
 C         2.253486         0.204517         0.497124
 O         2.205430         1.019223         1.299898
 H         1.810854        -2.382855        -3.252712
 H         1.708595        -1.466872        -5.056696
 H         3.294110        -2.153687        -4.390008
 H         2.825180         1.814411        -3.472657
 H         2.125160         1.133791        -4.940408
 H         0.201106         0.181765        -3.203331
 H         3.086999         1.503266        -1.057340
 H         4.238663        -0.016461        -2.042179
 H         3.237373        -1.468046        -1.723207
 H         1.851556        -0.893618         0.693697
