19
Iteration:  1680charge 0 multiplicity 1
 C         2.569099        -1.732068        -3.818276
 C         2.506944        -0.397134        -3.130146
 C         2.005049         0.877171        -4.009193
 C         1.181884         0.298140        -2.922321
 O         1.109302         1.029596        -1.697961
 C         2.388134         0.830939        -0.987852
 C         3.198293        -0.107225        -1.847842
 C         2.093893         0.098369         0.380573
 O         2.660196         0.488032         1.345224
 H         3.683189        -1.903369        -4.055866
 H         2.163056        -2.543886        -3.062000
 H         1.921426        -1.802446        -4.683649
 H         2.397157         1.850143        -3.904167
 H         1.719644         0.529618        -5.029043
 H         0.222653        -0.113582        -3.198737
 H         2.887009         1.769057        -0.758264
 H         4.251987         0.227075        -1.951848
 H         3.285717        -1.153493        -1.454280
 H         1.460826        -0.806752         0.425355
