19
Iteration:  2283charge 0 multiplicity 1
 C         2.592959        -1.808388        -3.613418
 C         2.432534        -0.395393        -3.126736
 C         2.101978         0.864274        -4.020835
 C         1.153791         0.355375        -2.961030
 O         1.125932         0.992518        -1.723060
 C         2.288830         0.867145        -1.031776
 C         3.219172        -0.002591        -1.895078
 C         2.000339         0.283501         0.337549
 O         2.767257         0.223370         1.335336
 H         3.560937        -2.004449        -3.971057
 H         2.329441        -2.485675        -2.811779
 H         1.912758        -2.214260        -4.409148
 H         2.628652         1.850558        -3.660100
 H         1.875747         0.834285        -5.142427
 H         0.187455         0.028179        -3.361792
 H         2.714103         1.875299        -0.784279
 H         4.221142         0.378927        -2.222555
 H         3.555332        -0.926086        -1.589437
 H         0.875144        -0.018759         0.552648
