19
Iteration:  4126charge 0 multiplicity 1
 C         2.595148        -1.597115        -4.049107
 C         2.357047        -0.452840        -3.118581
 C         2.297333         0.896584        -3.820486
 C         1.099593         0.307700        -2.977538
 O         1.009701         0.929032        -1.684879
 C         2.250663         0.682077        -0.988313
 C         3.052413        -0.453238        -1.704592
 C         2.050197         0.423570         0.416620
 O         2.930155         0.560967         1.273453
 H         3.607330        -1.619012        -4.335761
 H         2.383717        -2.436488        -3.343318
 H         2.070283        -1.633703        -5.051480
 H         2.884531         1.667405        -3.494073
 H         2.320313         0.986920        -4.929669
 H         0.205597         0.107360        -3.527996
 H         2.899375         1.573548        -1.035588
 H         4.101172        -0.269648        -1.656130
 H         2.747552        -1.398301        -1.220161
 H         0.939278         0.245146         0.744362
