19
Iteration:  2667
 C         2.526935        -1.762532        -3.908092
 C         2.458178        -0.401358        -3.080811
 C         2.094806         0.820774        -3.945695
 C         1.105783         0.316648        -2.915635
 O         1.146841         1.046538        -1.716346
 C         2.333401         0.788773        -0.980777
 C         3.313589        -0.199894        -1.860130
 C         2.013723         0.333285         0.382715
 O         2.687054         0.413654         1.376860
 H         3.384942        -1.679871        -4.513298
 H         2.806002        -2.666574        -3.248498
 H         1.660477        -1.787072        -4.656512
 H         2.709752         1.651756        -3.671939
 H         1.642486         0.637985        -5.034037
 H         0.089656        -0.075774        -3.215940
 H         2.951805         1.660390        -0.833299
 H         4.233621         0.262791        -2.185529
 H         3.474435        -1.066323        -1.228457
 H         1.171760        -0.300980         0.387335
