19
Iteration:  1062charge 0 multiplicity 1
 C         2.620075        -1.761479        -3.854262
 C         2.405064        -0.432542        -3.158777
 C         2.245362         0.864281        -3.907792
 C         1.077909         0.397544        -3.000693
 O         0.968164         0.951806        -1.678087
 C         2.269926         0.882102        -1.056386
 C         3.114856        -0.218237        -1.719399
 C         2.034657         0.476070         0.408355
 O         2.915381         0.237498         1.285616
 H         3.346383        -1.664472        -4.658244
 H         3.039869        -2.590597        -3.311819
 H         1.575908        -2.092252        -4.014730
 H         2.926162         1.801394        -3.674899
 H         2.162922         0.811185        -5.013094
 H         0.232698         0.071355        -3.470982
 H         2.829090         1.879637        -1.013172
 H         4.202562        -0.020177        -1.653258
 H         2.906684        -1.107653        -1.289556
 H         1.050711         0.129480         0.508605
