19
Iteration:  2270charge 0 multiplicity 1
 C         2.584969        -1.844434        -3.591714
 C         2.420923        -0.324449        -3.231486
 C         2.118316         0.885552        -4.106576
 C         1.161317         0.406668        -2.975746
 O         1.060544         0.982931        -1.651676
 C         2.401489         0.804030        -0.957139
 C         3.266835        -0.049369        -1.937969
 C         1.970506         0.257733         0.402897
 O         2.730775         0.255710         1.299830
 H         3.615780        -1.976104        -3.770301
 H         2.488973        -2.444562        -2.621102
 H         1.919559        -2.105928        -4.412152
 H         2.716998         1.903167        -4.186938
 H         1.598632         0.582772        -4.992036
 H         0.243535        -0.100812        -3.143134
 H         2.917723         1.773137        -0.805210
 H         4.139213         0.632271        -2.078741
 H         3.422888        -0.889765        -1.297747
 H         0.808705        -0.081376         0.367554
