19
Iteration:   875
 C         2.439404        -1.693849        -3.929517
 C         2.489884        -0.408812        -3.145377
 C         2.334151         0.968095        -3.801911
 C         1.244711         0.368022        -3.027504
 O         1.037837         0.896618        -1.703344
 C         2.256761         0.659545        -1.009191
 C         3.148515        -0.374657        -1.815602
 C         1.951924         0.371536         0.416750
 O         2.803937         0.554222         1.322096
 H         1.486784        -2.206125        -3.994960
 H         2.518390        -1.505091        -4.985464
 H         3.253681        -2.400215        -3.608466
 H         2.931316         1.617267        -3.167833
 H         2.066228         1.176694        -4.858597
 H         0.286677        -0.072859        -3.421028
 H         2.844606         1.560905        -1.046240
 H         4.187834         0.027170        -1.815863
 H         3.220096        -1.369486        -1.365832
 H         0.978596         0.025801         0.773799
