19
Iteration:  3291charge 0 multiplicity 1
 C         2.665234        -1.733257        -3.624990
 C         2.552426        -0.367340        -3.093942
 C         1.920875         0.750578        -4.028766
 C         1.160411         0.119678        -2.842691
 O         1.068749         1.068791        -1.768528
 C         2.348373         1.053604        -1.031426
 C         3.266307         0.153768        -1.788382
 C         2.004697         0.570967         0.412434
 O         2.748712        -0.227118         1.095536
 H         3.712239        -1.896347        -4.013449
 H         2.528739        -2.462825        -2.776563
 H         1.896651        -1.841797        -4.376318
 H         2.134665         1.795124        -3.862142
 H         1.749582         0.549007        -5.107670
 H         0.226842        -0.483888        -2.964087
 H         2.632396         2.150356        -1.085604
 H         4.232026         0.765680        -1.941381
 H         3.438230        -0.831363        -1.206925
 H         0.977553         0.937475         0.725927
