19
Iteration:   215
 C         2.439369        -1.702473        -4.036368
 C         2.336912        -0.419977        -3.228897
 C         2.271227         1.108451        -3.759738
 C         1.210160         0.394049        -2.873182
 O         1.132765         0.718121        -1.532659
 C         2.571763         0.606795        -1.064139
 C         3.222565        -0.531101        -1.906139
 C         2.306730         0.212751         0.424685
 O         2.259878         0.961850         1.296446
 H         2.019643        -2.441922        -3.562962
 H         1.892201        -1.724300        -5.008934
 H         3.525734        -1.881635        -4.289677
 H         2.967428         1.745037        -3.314556
 H         1.864105         1.179661        -4.773115
 H         0.338745         0.385876        -3.503506
 H         3.028982         1.572987        -1.035602
 H         4.334876        -0.563412        -2.012073
 H         2.972212        -1.514344        -1.318217
 H         2.080410        -0.902908         0.592030
