19
Iteration:  4032charge 0 multiplicity 1
 C         2.518685        -1.756344        -3.921612
 C         2.436041        -0.376754        -3.124898
 C         2.288293         0.943739        -3.779699
 C         1.178379         0.344780        -3.038296
 O         0.974673         0.820216        -1.687451
 C         2.232621         0.697380        -0.955064
 C         3.164589        -0.280023        -1.779425
 C         1.939818         0.592281         0.469298
 O         2.951615         0.365037         1.173681
 H         3.571145        -2.207631        -4.112801
 H         1.925753        -2.397192        -3.286339
 H         2.094901        -1.634257        -4.900619
 H         2.703979         1.846428        -3.281042
 H         2.210346         1.160488        -4.882177
 H         0.299454        -0.048695        -3.432659
 H         2.726669         1.717840        -1.086081
 H         4.221198         0.075188        -1.983535
 H         3.100405        -1.336199        -1.501392
 H         0.852947         0.614815         0.903177
