19
Iteration:  1275charge 0 multiplicity 1
 C         2.616117        -1.524373        -4.135587
 C         2.424034        -0.432324        -3.148390
 C         2.189068         0.847621        -3.752581
 C         1.114878         0.260224        -2.967599
 O         1.089731         0.921792        -1.681057
 C         2.311204         0.560690        -0.994359
 C         3.080372        -0.596568        -1.772771
 C         1.956503         0.604797         0.466561
 O         2.873717         0.624787         1.356393
 H         3.512430        -1.405997        -4.789710
 H         2.795886        -2.575658        -3.752966
 H         1.720400        -1.575948        -4.791547
 H         2.578933         1.832684        -3.364659
 H         2.032098         0.804836        -4.813811
 H         0.075774         0.063696        -3.336375
 H         3.029016         1.492867        -1.151276
 H         4.142619        -0.368977        -1.814891
 H         3.056030        -1.596700        -1.440699
 H         0.963225         0.687075         0.776400
