19
Iteration:  1399
 C         2.579987        -1.641945        -3.692631
 C         2.487159        -0.337626        -3.051481
 C         2.193282         0.802180        -3.913125
 C         1.094171         0.335549        -2.995326
 O         0.969386         0.956374        -1.771728
 C         2.205501         1.011578        -1.068768
 C         3.082447        -0.153622        -1.734685
 C         2.112118         0.312156         0.360651
 O         2.933933         0.193977         1.188447
 H         3.713483        -1.860614        -4.030943
 H         2.327614        -2.387150        -2.975202
 H         2.098234        -1.857266        -4.612228
 H         2.899750         1.663618        -3.634722
 H         2.022279         0.358368        -4.848749
 H         0.125815        -0.064505        -3.454522
 H         2.795903         2.004175        -1.094888
 H         4.136892        -0.028478        -1.462312
 H         2.823099        -1.002802        -1.131415
 H         1.173139        -0.425403         0.375803
