19
Iteration:   969charge 0 multiplicity 1
 C         2.537996        -1.751055        -3.862196
 C         2.422356        -0.419478        -3.072634
 C         2.298280         0.871696        -3.893310
 C         1.190006         0.349177        -3.018844
 O         0.985112         1.004242        -1.696635
 C         2.236227         0.825749        -0.992604
 C         3.138578        -0.239317        -1.776538
 C         1.966861         0.421674         0.398383
 O         2.898114         0.289695         1.246956
 H         2.164680        -1.706354        -4.900929
 H         3.599703        -1.922437        -4.211121
 H         2.294250        -2.461286        -3.154778
 H         2.627691         1.864455        -3.651991
 H         2.008210         0.644874        -4.850234
 H         0.287239        -0.043995        -3.387338
 H         2.774546         1.812263        -0.979321
 H         4.148157         0.145576        -1.888342
 H         3.177975        -1.220666        -1.139621
 H         0.928057         0.223561         0.632055
