19
Iteration:  1601
 C         2.416887        -1.739566        -3.841475
 C         2.553320        -0.351231        -3.133984
 C         1.970320         0.850806        -3.852149
 C         1.209702         0.225685        -2.782375
 O         1.211331         1.024362        -1.674925
 C         2.471655         0.788784        -1.029972
 C         3.419492        -0.037057        -1.941763
 C         2.090311         0.063376         0.233569
 O         2.446474         0.540921         1.321875
 H         3.211104        -1.976124        -4.541880
 H         2.293192        -2.661094        -3.129657
 H         1.522152        -1.670597        -4.582120
 H         2.348696         1.910212        -3.890827
 H         1.652787         0.702998        -4.835823
 H         0.365527        -0.518330        -2.804611
 H         2.785301         1.816081        -0.690765
 H         4.418509         0.337656        -2.017375
 H         3.566995        -1.011870        -1.384332
 H         1.356459        -0.829923         0.365872
