19
Iteration:   816charge 0 multiplicity 1
 C         2.528285        -1.732164        -3.961584
 C         2.449304        -0.431401        -3.193281
 C         2.497842         0.997165        -3.805409
 C         1.188509         0.493254        -3.121122
 O         0.899683         0.867755        -1.700447
 C         2.180483         0.736984        -0.988430
 C         2.948534        -0.449152        -1.723804
 C         2.126699         0.182902         0.469830
 O         2.855301         0.699179         1.362080
 H         2.437219        -2.564002        -3.150889
 H         1.678148        -1.541726        -4.731170
 H         3.298717        -1.987713        -4.636079
 H         3.161568         1.779697        -3.446921
 H         2.664889         0.938890        -4.898278
 H         0.314801         0.164109        -3.728786
 H         2.870309         1.628331        -0.943530
 H         3.986896        -0.279929        -1.784723
 H         2.738013        -1.380007        -1.305332
 H         1.354210        -0.646601         0.590981
