19
Iteration:  4899
 C         2.356775        -1.738109        -3.878500
 C         2.454739        -0.383114        -3.121094
 C         2.273159         0.879956        -3.990488
 C         1.196168         0.413501        -3.000027
 O         1.096553         0.932517        -1.715962
 C         2.265269         0.735880        -0.951664
 C         3.248859        -0.287735        -1.740162
 C         2.073005         0.179148         0.410321
 O         2.742242         0.595733         1.298941
 H         3.434241        -2.120542        -3.737863
 H         1.719015        -2.377110        -3.236138
 H         1.974427        -1.550505        -4.959440
 H         2.814678         1.678274        -3.545560
 H         2.169232         0.902965        -5.084091
 H         0.054547         0.200724        -3.199384
 H         2.784557         1.713095        -0.868080
 H         4.114484         0.278882        -1.922900
 H         3.477446        -1.359203        -1.420102
 H         1.247602        -0.664598         0.565470
