19
Iteration:  4093
 C         2.653656        -1.658122        -4.139841
 C         2.345286        -0.489398        -3.148113
 C         2.263729         0.922651        -3.810481
 C         1.151522         0.345793        -2.986425
 O         1.026538         0.881445        -1.695386
 C         2.213476         0.706536        -0.979827
 C         2.993275        -0.398817        -1.672548
 C         2.004803         0.556854         0.479004
 O         2.967343         0.480786         1.293347
 H         3.640831        -1.572612        -4.463071
 H         2.658957        -2.644576        -3.599106
 H         1.876356        -1.929113        -4.897363
 H         2.906744         1.610600        -3.387432
 H         2.049245         0.930104        -4.914410
 H         0.172370         0.225859        -3.484119
 H         2.934654         1.522469        -0.993758
 H         4.042706        -0.184805        -1.724489
 H         3.020468        -1.389231        -1.182156
 H         0.912583         0.552505         0.840514
