19
Iteration:  1999charge 0 multiplicity 1
 C         2.428789        -1.730931        -3.851128
 C         2.443827        -0.444914        -3.126302
 C         2.143222         0.840017        -3.886898
 C         1.107061         0.207251        -2.956749
 O         1.120906         0.975506        -1.695124
 C         2.425641         0.850450        -1.034941
 C         3.306544        -0.038202        -1.905185
 C         2.133256         0.231308         0.316693
 O         2.591838         0.442156         1.458432
 H         3.469036        -1.911138        -4.167905
 H         2.066607        -2.497568        -3.130676
 H         1.905586        -1.713401        -4.801832
 H         2.608393         1.713953        -3.594584
 H         1.943821         0.868204        -5.047168
 H         0.155393        -0.273293        -3.137907
 H         2.886969         1.848937        -1.113381
 H         4.238097         0.558479        -2.163957
 H         3.691927        -0.848814        -1.301514
 H         1.390974        -0.663713         0.248663
