19
Iteration:   834charge 0 multiplicity 1
 C         2.398499        -1.673765        -3.881177
 C         2.426108        -0.420289        -3.190342
 C         2.541353         0.982849        -3.817116
 C         1.267877         0.507127        -3.029162
 O         0.939225         0.723470        -1.723659
 C         2.168133         0.696768        -1.042893
 C         2.989088        -0.337224        -1.748998
 C         2.119132         0.295997         0.395460
 O         2.838709         0.628689         1.345539
 H         2.116793        -2.437620        -3.204994
 H         1.896951        -1.627714        -4.836586
 H         3.528702        -2.027747        -3.942909
 H         3.198462         1.725536        -3.322410
 H         2.200565         1.179314        -4.924530
 H         0.422272         0.375634        -3.786971
 H         2.595901         1.723837        -1.111026
 H         4.159365        -0.340429        -1.562415
 H         2.654613        -1.414576        -1.342996
 H         1.479632        -0.661200         0.517041
