19
Iteration:  4602
 C         2.650406        -1.663775        -3.968657
 C         2.396466        -0.457759        -3.083690
 C         2.283327         0.823070        -3.881104
 C         1.098108         0.380379        -3.077723
 O         0.997887         1.002997        -1.757293
 C         2.205698         0.740266        -0.992143
 C         2.985147        -0.421086        -1.711849
 C         2.040837         0.505974         0.473188
 O         2.966173         0.418298         1.321879
 H         3.720312        -1.799642        -4.313331
 H         2.317920        -2.579152        -3.493128
 H         1.915011        -1.455097        -4.732143
 H         2.843855         1.639641        -3.446067
 H         2.514492         0.806492        -4.989351
 H         0.057187         0.108759        -3.424265
 H         2.897230         1.547398        -1.124738
 H         4.075821        -0.118160        -1.699550
 H         2.885475        -1.360809        -1.151645
 H         1.052930         0.328789         0.904952
