19
Iteration:  2777charge 0 multiplicity 1
 C         2.482975        -1.753232        -3.985912
 C         2.441044        -0.429033        -3.241326
 C         2.150286         0.955667        -3.842853
 C         1.137277         0.401908        -2.921657
 O         1.121070         0.750474        -1.628991
 C         2.440649         0.713801        -1.035339
 C         3.225476        -0.267991        -1.949916
 C         2.133445         0.241370         0.414313
 O         2.591400         0.745442         1.459282
 H         3.472921        -2.152941        -3.989697
 H         1.781972        -2.548749        -3.470982
 H         2.023801        -1.780383        -5.016091
 H         2.743930         1.825215        -3.364553
 H         2.062821         1.094208        -4.905287
 H         0.139955         0.195350        -3.246181
 H         2.927746         1.668637        -0.921035
 H         4.230721         0.096411        -2.071798
 H         3.211810        -1.215712        -1.379847
 H         1.493640        -0.717093         0.500191
