19
Iteration:  1303charge 0 multiplicity 1
 C         2.491920        -1.630054        -4.066481
 C         2.489777        -0.431042        -3.162258
 C         2.211662         0.970503        -3.852872
 C         1.231478         0.264260        -2.978776
 O         1.019286         0.752129        -1.632374
 C         2.359339         0.798913        -1.043549
 C         3.033683        -0.423748        -1.702670
 C         2.059099         0.621525         0.483221
 O         2.834044         0.498715         1.329643
 H         3.507231        -1.692250        -4.568856
 H         2.285729        -2.638956        -3.732051
 H         1.922155        -1.408764        -5.026290
 H         2.649243         1.872841        -3.384422
 H         2.102432         0.828391        -4.905701
 H         0.303470        -0.230454        -3.460291
 H         2.785451         1.735521        -1.330080
 H         4.138399        -0.580006        -1.656748
 H         2.831036        -1.537441        -1.268480
 H         0.927308         0.337600         0.727567
