19
Iteration:   992charge 0 multiplicity 1
 C         2.457305        -1.789211        -3.806045
 C         2.454156        -0.395517        -3.075338
 C         2.346832         0.907721        -3.967733
 C         1.190783         0.382260        -3.034189
 O         0.956964         0.825832        -1.720626
 C         2.182431         0.893617        -1.007262
 C         3.141278        -0.052608        -1.745079
 C         1.992975         0.405010         0.463506
 O         2.953208         0.245573         1.256297
 H         2.475136        -1.503852        -4.912276
 H         3.327276        -2.501466        -3.903114
 H         1.697807        -2.253180        -3.345995
 H         3.204118         1.400201        -3.721064
 H         2.184546         0.757411        -5.021418
 H         0.212467         0.172565        -3.577223
 H         2.498404         1.989922        -1.022623
 H         4.145076         0.279176        -1.821162
 H         3.132757        -1.055360        -1.196592
 H         0.997643         0.093576         0.678965
