19
Iteration:  2257
 C         2.597524        -1.744182        -3.570250
 C         2.513154        -0.315431        -3.190665
 C         2.019175         0.789775        -4.152653
 C         1.140458         0.474018        -2.943046
 O         1.076751         0.995060        -1.646588
 C         2.319949         0.792307        -1.013360
 C         3.333336        -0.060391        -1.912089
 C         1.989954         0.242533         0.388114
 O         2.713883         0.261383         1.357284
 H         3.554320        -2.127428        -3.998675
 H         2.179207        -2.406770        -2.721035
 H         1.948694        -2.050129        -4.377231
 H         2.750742         1.586032        -4.208436
 H         1.754341         0.489936        -5.125334
 H         0.171992         0.218119        -3.328105
 H         2.713887         1.795282        -0.837265
 H         4.302988         0.373527        -2.148025
 H         3.706403        -1.093998        -1.650896
 H         0.929054        -0.285503         0.417367
