19
Iteration:   775charge 0 multiplicity 1
 C         2.634875        -1.592684        -4.106180
 C         2.403283        -0.452101        -3.084844
 C         2.299768         0.862391        -3.827341
 C         1.166619         0.400485        -3.009168
 O         1.114748         0.952070        -1.618692
 C         2.403571         0.623326        -0.992817
 C         2.981142        -0.566874        -1.775443
 C         1.980808         0.422779         0.403739
 O         2.724225         0.664798         1.343505
 H         2.777227        -2.557415        -3.573176
 H         1.662504        -1.715138        -4.707478
 H         3.335210        -1.390649        -4.878837
 H         2.816136         1.701935        -3.421625
 H         2.316728         0.905706        -4.880082
 H         0.170887         0.091761        -3.277146
 H         3.036482         1.501903        -0.985161
 H         4.058035        -0.505512        -1.786392
 H         2.607867        -1.517848        -1.257934
 H         0.981399        -0.001549         0.543539
