19
Iteration:  3340charge 0 multiplicity 1
 C         2.789328        -1.756446        -3.554029
 C         2.341241        -0.415047        -3.060926
 C         2.061123         0.748533        -4.078855
 C         1.095879         0.367290        -2.927313
 O         1.057892         0.921860        -1.609053
 C         2.327273         1.049503        -1.021965
 C         3.203421         0.162475        -1.913344
 C         2.089148         0.522609         0.429582
 O         2.709690        -0.171032         1.103242
 H         3.917441        -1.887113        -3.675255
 H         2.359945        -2.400367        -2.741468
 H         2.241951        -1.990185        -4.587604
 H         2.687158         1.673129        -4.064142
 H         1.708594         0.396693        -5.138714
 H         0.174848        -0.097084        -3.217162
 H         2.683444         2.121962        -1.013767
 H         4.014111         0.710361        -2.363445
 H         3.599226        -0.757665        -1.492755
 H         1.063970         0.793662         0.570616
