19
Iteration:  2269charge 0 multiplicity 1
 C         2.584240        -1.840687        -3.592038
 C         2.428720        -0.321240        -3.238619
 C         2.111370         0.884070        -4.115393
 C         1.158320         0.413702        -2.971820
 O         1.058059         0.984229        -1.647447
 C         2.401879         0.800277        -0.959476
 C         3.274064        -0.050429        -1.937158
 C         1.959563         0.256169         0.400874
 O         2.735988         0.257204         1.306737
 H         3.648891        -1.981087        -3.754103
 H         2.485151        -2.461100        -2.609264
 H         1.902910        -2.080025        -4.391377
 H         2.722388         1.860902        -4.185199
 H         1.613688         0.552299        -4.970148
 H         0.238933        -0.085637        -3.158403
 H         2.897171         1.771924        -0.812482
 H         4.135074         0.620573        -2.093414
 H         3.438772        -0.934018        -1.281572
 H         0.819590        -0.088396         0.328837
