19
Iteration:  1443
 C         2.646495        -1.765151        -3.812954
 C         2.395510        -0.388080        -3.184590
 C         2.062489         0.791817        -3.956151
 C         1.091249         0.333296        -2.923411
 O         1.187625         1.069908        -1.725408
 C         2.374828         0.674259        -0.995082
 C         3.258232        -0.072970        -1.949116
 C         1.936976         0.292512         0.443934
 O         2.728883         0.362289         1.411138
 H         3.556826        -1.869111        -4.545228
 H         2.675607        -2.510825        -3.063497
 H         1.833517        -1.998337        -4.461127
 H         2.641610         1.768518        -3.658255
 H         1.611254         0.669685        -4.895420
 H         0.021101         0.033985        -3.231167
 H         2.801855         1.695062        -0.698598
 H         4.227258         0.401154        -2.126929
 H         3.590368        -0.970592        -1.577902
 H         0.815048         0.218796         0.479228
