19
Iteration:   138
 C         2.529089        -1.661184        -4.105631
 C         2.480741        -0.372330        -3.299099
 C         2.280250         0.957488        -3.845563
 C         1.209406         0.272013        -2.946149
 O         1.043255         0.804247        -1.564870
 C         2.392726         0.618984        -0.939758
 C         3.134886        -0.492164        -1.882866
 C         2.015317         0.353417         0.517006
 O         2.656965         0.823698         1.367137
 H         2.401336        -2.537540        -3.420902
 H         1.833275        -1.698336        -5.014769
 H         3.563932        -1.786049        -4.570972
 H         2.803999         1.793389        -3.363752
 H         2.123239         1.201828        -4.917390
 H         0.259939         0.016004        -3.399005
 H         2.997290         1.484749        -0.816781
 H         4.257328        -0.370099        -1.910961
 H         2.736916        -1.492736        -1.430713
 H         0.933977        -0.022458         0.702339
