19
Iteration:   349
 C         2.475157        -1.700613        -3.960753
 C         2.401031        -0.382319        -3.191629
 C         2.202746         0.892420        -4.024372
 C         1.157138         0.344749        -3.031965
 O         1.225287         0.990606        -1.634047
 C         2.430687         0.618332        -0.970142
 C         3.171421        -0.376757        -1.840254
 C         2.111746         0.196728         0.500118
 O         2.511717         0.717493         1.475887
 H         2.220192        -2.576203        -3.344332
 H         1.897363        -1.638135        -4.877725
 H         3.587187        -1.868094        -4.353464
 H         2.688525         1.820144        -3.673334
 H         2.038005         0.999365        -5.138295
 H         0.160161        -0.012910        -3.397493
 H         3.062219         1.477939        -0.848898
 H         4.121763         0.127447        -1.907299
 H         3.284860        -1.458996        -1.491932
 H         1.369167        -0.556933         0.463529
