19
Iteration:   285
 C         2.344316        -1.605727        -4.113011
 C         2.419787        -0.446701        -3.247510
 C         2.297181         0.872059        -3.800312
 C         1.125591         0.273692        -2.831283
 O         1.268601         0.853853        -1.560172
 C         2.632331         0.668688        -1.023422
 C         3.260431        -0.408616        -1.907964
 C         2.281192         0.203988         0.383633
 O         2.166472         0.905625         1.416913
 H         2.025826        -2.491912        -3.517105
 H         1.571478        -1.621614        -4.802453
 H         3.255771        -1.667338        -4.629148
 H         2.981612         1.667971        -3.394190
 H         1.888047         0.922570        -4.842572
 H         0.098660         0.206405        -3.274402
 H         3.108365         1.638739        -1.109337
 H         4.348775        -0.344268        -2.110283
 H         3.138245        -1.425913        -1.364637
 H         1.908985        -0.967624         0.487064
