19
Iteration:  2174charge 0 multiplicity 1
 C         2.580492        -1.796462        -3.627125
 C         2.384610        -0.321789        -3.143126
 C         2.058550         0.760888        -4.044110
 C         1.092827         0.397051        -2.943325
 O         1.178054         1.064360        -1.684009
 C         2.468128         0.858936        -1.034821
 C         3.260808        -0.047790        -1.932428
 C         2.110601         0.152791         0.291867
 O         2.559609         0.318484         1.400106
 H         3.607636        -1.800766        -4.021027
 H         2.681513        -2.483884        -2.771360
 H         1.785782        -2.136469        -4.366477
 H         2.563584         1.863692        -3.930979
 H         1.644684         0.542829        -5.032968
 H         0.133956        -0.062735        -3.114418
 H         2.886613         1.886776        -0.795207
 H         4.242109         0.406060        -2.350790
 H         3.440489        -1.003266        -1.481871
 H         1.360057        -0.634259         0.267896
