19
Iteration:  2778charge 0 multiplicity 1
 C         2.483020        -1.751081        -3.986514
 C         2.439429        -0.422364        -3.249858
 C         2.148699         0.959321        -3.850637
 C         1.135665         0.400261        -2.922444
 O         1.126378         0.749732        -1.624998
 C         2.439865         0.710744        -1.045375
 C         3.219994        -0.269936        -1.940837
 C         2.136625         0.244487         0.428584
 O         2.590542         0.745223         1.461032
 H         3.478236        -2.175433        -3.991541
 H         1.816374        -2.541563        -3.430193
 H         2.051832        -1.788315        -5.025227
 H         2.783324         1.815434        -3.358762
 H         2.053640         1.108209        -4.900740
 H         0.146558         0.162868        -3.251400
 H         2.911508         1.681997        -0.933573
 H         4.216095         0.066399        -2.119728
 H         3.201700        -1.235720        -1.418488
 H         1.453003        -0.720227         0.525528
