19
Iteration:  4073
 C         2.608925        -1.640858        -3.972494
 C         2.486204        -0.406686        -3.163820
 C         2.327678         0.925786        -3.864678
 C         1.108065         0.391699        -3.007179
 O         0.937772         0.733647        -1.609308
 C         2.307918         0.803962        -1.059298
 C         2.988902        -0.398230        -1.798075
 C         2.043709         0.604306         0.445475
 O         2.936101         0.409300         1.340649
 H         3.554911        -1.705965        -4.497215
 H         2.424204        -2.604910        -3.452532
 H         1.699540        -1.674647        -4.647391
 H         2.756657         1.851582        -3.633924
 H         2.200149         0.900865        -4.982227
 H         0.268895        -0.071155        -3.484308
 H         2.764877         1.806649        -1.235014
 H         4.039841        -0.636190        -1.556005
 H         2.484452        -1.234077        -1.252272
 H         0.999076         0.460762         0.746819
