19
Iteration:  3566charge 0 multiplicity 1
 C         2.683059        -1.643201        -3.823770
 C         2.452821        -0.343744        -3.157331
 C         2.240162         0.935498        -3.967180
 C         1.183522         0.339818        -2.979523
 O         0.907149         0.800884        -1.637785
 C         2.179932         0.786331        -1.055449
 C         3.003105        -0.265432        -1.780120
 C         2.040248         0.439339         0.493249
 O         2.969236         0.376734         1.213066
 H         3.676426        -1.808570        -4.250475
 H         2.664388        -2.425762        -3.020578
 H         1.879292        -1.851406        -4.506304
 H         2.680579         1.865250        -3.688775
 H         2.140936         0.672653        -5.023351
 H         0.336777         0.018230        -3.558655
 H         2.737429         1.737956        -1.112115
 H         4.068861        -0.039788        -1.635848
 H         2.924328        -1.174057        -1.172784
 H         1.098897        -0.078135         0.665260
