19
Iteration:  1377charge 0 multiplicity 1
 C         2.565449        -1.774884        -3.683643
 C         2.466167        -0.398474        -3.057257
 C         2.316771         0.953414        -3.972163
 C         1.167310         0.368469        -3.081223
 O         0.876725         0.925967        -1.731860
 C         2.140669         0.895742        -0.975300
 C         3.027472        -0.126719        -1.673875
 C         2.107496         0.334634         0.370497
 O         3.016710         0.246023         1.125654
 H         3.666372        -2.184971        -3.880176
 H         1.968580        -2.506421        -3.167896
 H         2.229819        -1.747872        -4.704609
 H         2.656824         1.934013        -3.515425
 H         2.104735         0.747557        -5.004801
 H         0.275381        -0.134209        -3.525972
 H         2.759879         1.870250        -0.987885
 H         4.102560         0.169660        -1.617263
 H         2.950178        -1.081114        -1.109267
 H         1.121843        -0.103745         0.741074
