19
Iteration:  3101
 C         2.767103        -1.699575        -3.608401
 C         2.494343        -0.290487        -3.163474
 C         1.994514         0.803449        -4.078368
 C         1.083662         0.371181        -2.929900
 O         0.920528         1.012061        -1.707780
 C         2.286300         0.914212        -1.093531
 C         3.171834        -0.046084        -1.778687
 C         2.060964         0.464871         0.417104
 O         2.908130        -0.087248         1.223954
 H         3.917289        -1.842294        -3.639356
 H         2.636639        -2.405690        -2.789903
 H         2.276409        -2.153809        -4.492898
 H         2.351402         1.792156        -4.216847
 H         1.802950         0.269255        -5.067989
 H         0.089580        -0.076212        -3.172408
 H         2.679726         1.968905        -1.070878
 H         4.251723         0.416808        -1.972688
 H         3.095428        -0.980418        -1.161438
 H         0.960269         0.735652         0.803498
