19
Iteration:  3751charge 0 multiplicity 1
 C         2.516952        -1.662157        -3.973289
 C         2.453842        -0.309933        -3.229038
 C         2.211866         1.027146        -3.904852
 C         1.188294         0.385067        -3.001377
 O         1.070904         0.673900        -1.624766
 C         2.424313         0.644898        -1.010140
 C         3.104181        -0.416207        -1.895066
 C         2.100071         0.289797         0.451344
 O         2.678480         0.760987         1.454268
 H         3.485333        -2.194686        -4.286670
 H         2.210883        -2.355295        -3.126692
 H         1.726387        -1.706223        -4.692202
 H         2.614357         1.959309        -3.488360
 H         2.018606         1.112595        -4.986106
 H         0.253082         0.030691        -3.495533
 H         2.928820         1.646549        -1.076824
 H         4.209635        -0.396006        -2.080306
 H         2.918186        -1.391595        -1.383409
 H         1.276704        -0.417046         0.760093
