19
Iteration:  2155
 C         2.576501        -1.880041        -3.623134
 C         2.450093        -0.438416        -3.261807
 C         1.918165         0.916154        -4.099071
 C         1.171494         0.355036        -2.965966
 O         1.166056         1.158714        -1.714687
 C         2.390620         0.840138        -0.993804
 C         3.354717        -0.052185        -1.980279
 C         2.129206         0.139382         0.423583
 O         2.553697         0.336269         1.523575
 H         3.541681        -2.269580        -4.196626
 H         2.597824        -2.543220        -2.795906
 H         1.785535        -2.076280        -4.446440
 H         2.583979         1.791911        -4.036255
 H         1.663099         0.841612        -5.113647
 H         0.221479        -0.176143        -3.271117
 H         2.674563         1.917164        -0.896975
 H         4.228359         0.519792        -2.265106
 H         3.597247        -1.057589        -1.522574
 H         1.322516        -0.677376         0.277794
