19
Iteration:  3189
 C         2.605487        -1.725627        -3.576701
 C         2.591649        -0.303979        -3.092144
 C         2.044825         0.715502        -4.085331
 C         1.138649         0.243445        -2.928260
 O         0.991373         0.936156        -1.653402
 C         2.286304         1.011948        -0.982820
 C         3.232136         0.165535        -1.840334
 C         2.034076         0.535982         0.474161
 O         2.803777        -0.159971         1.029539
 H         3.632904        -1.925098        -4.029866
 H         2.288755        -2.362902        -2.754655
 H         1.802156        -1.877157        -4.359565
 H         2.466918         1.786164        -4.119690
 H         1.777874         0.378903        -5.045434
 H         0.233797        -0.290586        -3.140023
 H         2.573412         2.135760        -1.016880
 H         4.263291         0.716024        -2.098980
 H         3.648386        -0.660603        -1.164702
 H         1.019184         0.690672         0.742924
