19
Iteration:  2973
 C         2.695611        -1.640652        -3.950818
 C         2.428429        -0.418341        -3.109719
 C         2.185813         0.904428        -3.904493
 C         1.034394         0.268063        -3.072376
 O         0.970211         0.843863        -1.647174
 C         2.252486         0.830773        -1.041245
 C         3.135840        -0.242860        -1.718835
 C         2.013512         0.458684         0.536294
 O         2.956948         0.360433         1.255711
 H         3.773079        -1.988246        -3.873523
 H         2.019162        -2.517478        -3.599859
 H         2.566238        -1.440216        -5.068820
 H         2.546788         1.869791        -3.653281
 H         1.951605         0.841449        -5.034635
 H         0.063008        -0.074662        -3.509343
 H         2.714137         1.885141        -1.051687
 H         4.190055        -0.009186        -1.740021
 H         3.076254        -1.279952        -1.119824
 H         0.939703         0.261020         0.713019
