19
Iteration:  2821
 C         2.602190        -1.625462        -4.093595
 C         2.448948        -0.376412        -3.208633
 C         2.161272         0.959240        -3.878735
 C         1.104977         0.395846        -3.002466
 O         1.124541         0.771147        -1.606916
 C         2.343666         0.658670        -1.013033
 C         3.117322        -0.479906        -1.762181
 C         2.088843         0.262050         0.530103
 O         2.721006         0.790738         1.369910
 H         3.554250        -1.681117        -4.525874
 H         2.280690        -2.563930        -3.556130
 H         1.778833        -1.621819        -4.831006
 H         2.844007         1.869804        -3.811221
 H         1.852297         0.777117        -4.879435
 H         0.171550        -0.027103        -3.328140
 H         2.934912         1.557607        -1.095265
 H         4.142096        -0.274922        -1.661754
 H         2.891197        -1.441879        -1.292175
 H         1.242249        -0.360141         0.585411
