19
Iteration:   984charge 0 multiplicity 1
 C         2.505449        -1.765181        -3.848310
 C         2.509422        -0.436743        -3.112726
 C         2.301847         0.837521        -3.957324
 C         1.157106         0.427967        -2.994502
 O         0.950330         0.883913        -1.717636
 C         2.196291         0.902205        -1.013886
 C         3.145012        -0.122868        -1.699961
 C         2.008513         0.407845         0.463332
 O         2.927458         0.257160         1.249735
 H         2.044187        -1.530518        -4.877353
 H         3.485469        -2.294071        -3.808732
 H         1.765440        -2.567381        -3.478514
 H         3.099593         1.582752        -3.743097
 H         2.261497         0.870851        -5.113525
 H         0.177249         0.125077        -3.558083
 H         2.638270         1.946836        -0.980017
 H         4.133521         0.299974        -1.816174
 H         3.212931        -1.035280        -1.216838
 H         0.881427         0.072764         0.702100
