19
Iteration:  3769
 C         2.428631        -1.654689        -3.875577
 C         2.512565        -0.307641        -3.241779
 C         2.138900         1.018396        -3.887546
 C         1.183522         0.321693        -2.945957
 O         1.105416         0.780212        -1.628480
 C         2.357962         0.637813        -1.005240
 C         3.252669        -0.402899        -1.824337
 C         2.079036         0.228936         0.349773
 O         2.668992         0.735679         1.374639
 H         3.453982        -1.976408        -4.131592
 H         1.896141        -2.510579        -3.510868
 H         1.996821        -1.551664        -4.912055
 H         2.854246         1.918575        -3.820737
 H         1.881228         1.013777        -4.919578
 H         0.162425        -0.061460        -3.224309
 H         2.996285         1.502044        -0.993428
 H         4.288877        -0.077300        -1.556913
 H         3.135802        -1.436211        -1.533452
 H         1.129874        -0.424072         0.499867
