19
Iteration:  2392
 C         2.658417        -1.838380        -3.876684
 C         2.423666        -0.396147        -3.127271
 C         2.209670         0.925518        -3.926196
 C         1.154629         0.346762        -3.007807
 O         0.966159         0.784164        -1.582554
 C         2.264612         0.883592        -1.065947
 C         3.156962        -0.205876        -1.752721
 C         2.023290         0.708123         0.453456
 O         2.819713         0.170654         1.229372
 H         3.675299        -1.974407        -4.081312
 H         2.279131        -2.694260        -3.212103
 H         2.197571        -1.815031        -4.900483
 H         2.847954         1.774521        -3.702786
 H         2.036174         0.881462        -5.084492
 H         0.110437         0.133742        -3.334191
 H         2.722109         1.895235        -1.180510
 H         4.219268         0.123052        -1.954427
 H         3.183425        -1.172780        -1.344883
 H         1.081609         1.216322         0.749791
