19
Iteration:  3160charge 0 multiplicity 1
 C         2.599741        -1.760703        -3.666941
 C         2.572959        -0.415792        -2.960869
 C         1.979836         0.754482        -3.932336
 C         1.151366         0.186278        -2.879731
 O         0.958687         1.056779        -1.749472
 C         2.293331         0.967171        -1.064842
 C         3.297374         0.193980        -1.794634
 C         2.006885         0.492336         0.350762
 O         2.852567        -0.124998         1.044292
 H         3.619822        -2.095371        -3.827560
 H         1.899548        -2.502071        -3.234261
 H         2.423770        -1.591662        -4.735995
 H         2.388647         1.713973        -3.609781
 H         1.861249         0.618357        -4.995403
 H         0.219456        -0.331577        -3.084606
 H         2.523915         2.003046        -0.965589
 H         4.209230         0.674786        -2.103083
 H         3.716614        -0.490285        -1.019378
 H         0.965736         0.803915         0.892447
