19
Iteration:  2895charge 0 multiplicity 1
 C         2.629817        -1.606570        -3.974135
 C         2.515645        -0.293646        -3.277708
 C         2.316772         1.004410        -3.865657
 C         1.160440         0.368204        -2.996680
 O         0.885364         0.637512        -1.630766
 C         2.181299         0.569587        -0.926957
 C         2.963396        -0.449428        -1.791611
 C         2.060197         0.415742         0.518773
 O         2.997810         0.687595         1.247198
 H         3.732848        -1.896823        -4.110082
 H         2.296846        -2.306002        -3.170776
 H         2.041053        -1.725498        -4.930566
 H         2.847957         1.894718        -3.453585
 H         2.153304         1.041616        -4.890722
 H         0.252741         0.473316        -3.559108
 H         2.608043         1.628903        -0.944157
 H         4.079453        -0.381890        -1.654633
 H         2.534073        -1.479187        -1.494032
 H         1.020989         0.189620         0.773332
