19
Iteration:  1133
 C         2.592646        -1.679442        -3.897079
 C         2.439982        -0.346244        -3.240995
 C         2.156588         0.974016        -3.941610
 C         1.120438         0.304791        -2.931481
 O         1.046116         0.790436        -1.638616
 C         2.381475         0.740363        -1.047283
 C         3.110532        -0.330141        -1.786264
 C         2.089875         0.500283         0.444179
 O         2.798770         0.464344         1.374140
 H         3.468104        -2.197281        -3.603811
 H         1.807469        -2.412640        -3.614765
 H         2.404538        -1.562744        -4.951708
 H         2.560279         1.911385        -3.665675
 H         1.961625         1.010847        -5.034713
 H         0.131488        -0.122154        -3.430461
 H         3.000263         1.607671        -1.195711
 H         4.192678        -0.269548        -1.864485
 H         2.785611        -1.389705        -1.430655
 H         1.100723         0.128399         0.498714
