19
Iteration:  1798
 C         2.802812        -1.622929        -4.041013
 C         2.447507        -0.467452        -3.100781
 C         2.261868         0.927435        -3.712591
 C         1.116363         0.228222        -2.920732
 O         0.944749         0.867066        -1.698551
 C         2.225883         0.857040        -1.032775
 C         2.909711        -0.457742        -1.646085
 C         2.032111         0.550859         0.434556
 O         2.966984         0.441239         1.082301
 H         3.760643        -1.536330        -4.373861
 H         2.414688        -2.594276        -3.774873
 H         2.162655        -1.403120        -4.886807
 H         2.378652         1.782774        -3.182145
 H         2.240972         0.770547        -4.857785
 H         0.242086        -0.143770        -3.349708
 H         2.849120         1.786159        -1.206277
 H         3.941901        -0.327862        -1.402509
 H         2.541901        -1.255240        -0.984646
 H         0.954432         0.541586         0.767813
