19
Iteration:  4734
 C         2.396339        -1.761345        -3.764189
 C         2.422289        -0.363245        -3.144145
 C         2.277383         0.960535        -3.908105
 C         1.130432         0.314659        -3.012208
 O         1.097549         0.946849        -1.675766
 C         2.401126         0.900116        -1.098812
 C         3.170591        -0.280197        -1.870915
 C         2.215278         0.196315         0.317341
 O         2.621286         0.510267         1.436019
 H         3.420934        -2.238694        -3.997105
 H         1.894442        -2.495223        -3.114612
 H         1.964112        -1.863054        -4.814986
 H         2.845238         1.819144        -3.582880
 H         2.343587         0.820060        -4.912113
 H         0.170207         0.001681        -3.296026
 H         2.874816         1.838711        -1.057914
 H         4.245942        -0.196913        -1.970271
 H         2.843017        -1.198412        -1.303055
 H         1.358735        -0.649877         0.322400
