19
Iteration:  3256
 C         2.732318        -1.748116        -3.648703
 C         2.490167        -0.384564        -2.964061
 C         1.989130         0.684432        -3.981817
 C         1.162091         0.271035        -2.854973
 O         0.959252         1.096294        -1.699664
 C         2.291412         0.989805        -1.047570
 C         3.265234         0.121570        -1.728971
 C         2.026842         0.578777         0.336666
 O         2.774689        -0.196684         0.967771
 H         3.463802        -1.630229        -4.495673
 H         3.010103        -2.490983        -2.911417
 H         1.835045        -2.226463        -4.147272
 H         2.391349         1.660360        -3.951654
 H         1.675686         0.203484        -4.949114
 H         0.203666        -0.100004        -3.227195
 H         2.826341         1.990800        -1.049631
 H         4.267608         0.727269        -1.894510
 H         3.721768        -0.723144        -1.153903
 H         0.996109         0.768441         0.816211
