19
Iteration:  1665charge 0 multiplicity 1
 C         2.674387        -1.825068        -3.838148
 C         2.376642        -0.344288        -3.257606
 C         2.008885         0.804957        -4.129098
 C         1.053987         0.415551        -2.913192
 O         1.159661         1.069089        -1.661189
 C         2.355079         0.825727        -0.957317
 C         3.248338        -0.147228        -1.862725
 C         2.198419         0.147669         0.427375
 O         2.603163         0.451502         1.476646
 H         3.665504        -1.860181        -4.186651
 H         2.616221        -2.652216        -3.106089
 H         1.979555        -2.052356        -4.751346
 H         2.682686         1.767322        -3.960869
 H         1.620946         0.609455        -5.103544
 H         0.068565        -0.150925        -3.090763
 H         2.828615         1.869638        -0.707728
 H         4.283037         0.158380        -1.950715
 H         3.104687        -1.089633        -1.308977
 H         1.577171        -0.702905         0.155816
