19
Iteration:  2748charge 0 multiplicity 1
 C         2.394881        -1.612545        -3.980926
 C         2.454519        -0.432875        -3.088725
 C         2.221944         0.816016        -3.875858
 C         1.177839         0.311850        -2.811992
 O         1.031764         0.882933        -1.639141
 C         2.384987         0.771162        -1.080636
 C         3.239798        -0.192708        -1.843724
 C         2.246358         0.115308         0.326501
 O         2.547703         0.679825         1.303493
 H         3.425587        -2.026795        -4.044629
 H         1.760892        -2.341960        -3.550940
 H         1.896841        -1.540438        -4.914041
 H         2.950641         1.580587        -3.455337
 H         2.227055         0.860508        -4.923319
 H         0.251481        -0.181726        -3.081013
 H         2.878880         1.747944        -0.879230
 H         4.260113         0.220937        -2.043214
 H         3.358476        -0.989313        -1.094399
 H         1.889625        -0.897674         0.284291
