19
Iteration:  3957charge 0 multiplicity 1
 C         2.597113        -1.760089        -3.691879
 C         2.524876        -0.298007        -3.188314
 C         2.078113         0.917213        -3.897145
 C         1.084419         0.354758        -3.016486
 O         1.034087         1.059766        -1.779680
 C         2.353812         0.746894        -1.003937
 C         3.155317        -0.317713        -1.757009
 C         1.940745         0.350247         0.376848
 O         2.907174         0.311336         1.235030
 H         3.728844        -1.874830        -3.820174
 H         2.234991        -2.419245        -2.938660
 H         1.995175        -1.962070        -4.537373
 H         2.400956         1.915173        -3.631986
 H         1.915583         1.109561        -5.031212
 H         0.120761        -0.056104        -3.139687
 H         3.051055         1.554614        -0.881241
 H         4.249175        -0.015703        -1.790081
 H         3.137349        -1.278281        -1.248296
 H         0.921614        -0.085717         0.520076
