19
Iteration:   157
 C         2.560382        -1.632941        -4.151293
 C         2.434836        -0.405222        -3.186118
 C         2.215621         0.922278        -3.909001
 C         1.185251         0.424640        -2.996203
 O         1.153433         0.799704        -1.658252
 C         2.348214         0.541836        -0.981901
 C         3.081391        -0.544599        -1.789515
 C         2.124857         0.282560         0.577969
 O         2.593183         0.911319         1.462891
 H         2.405303        -2.550060        -3.708339
 H         1.769377        -1.396510        -4.954103
 H         3.517644        -1.733708        -4.663262
 H         2.799275         1.890643        -3.831027
 H         2.023820         0.899550        -4.995527
 H         0.246111         0.056509        -3.448281
 H         2.904101         1.534628        -0.949589
 H         4.145734        -0.197979        -1.708119
 H         2.913749        -1.558293        -1.405361
 H         1.544312        -0.630031         0.696609
