19
Iteration:   104charge 0 multiplicity 1
 C         2.541683        -1.645973        -4.011301
 C         2.438159        -0.413667        -3.125457
 C         2.362450         1.003528        -3.777614
 C         1.131327         0.339677        -3.064069
 O         0.924577         0.660727        -1.638689
 C         2.328483         0.777170        -1.042206
 C         3.126736        -0.442302        -1.710071
 C         2.065743         0.490346         0.405484
 O         2.806190         0.587405         1.316845
 H         2.202731        -2.512113        -3.447440
 H         1.877738        -1.637064        -5.010084
 H         3.643330        -1.780716        -4.246737
 H         2.612935         2.034900        -3.373268
 H         2.422307         0.881436        -4.866573
 H         0.250040         0.155403        -3.712274
 H         2.696502         1.767234        -1.180177
 H         4.265223        -0.232459        -1.854953
 H         3.146887        -1.403974        -1.037020
 H         0.878673         0.190642         0.448610
