19
Iteration:  4200charge 0 multiplicity 1
 C         2.393690        -1.771465        -4.021600
 C         2.380737        -0.455948        -3.183169
 C         2.346268         0.908320        -3.815297
 C         1.128341         0.474615        -2.965115
 O         1.001957         0.892440        -1.660747
 C         2.304810         0.639966        -1.034502
 C         3.280189        -0.250629        -1.731433
 C         2.065620         0.161059         0.478553
 O         2.771221         0.707032         1.275178
 H         3.454058        -2.150108        -4.123120
 H         1.854660        -2.492023        -3.373356
 H         2.079314        -1.713680        -5.087969
 H         2.948442         1.715867        -3.496694
 H         2.130681         1.035254        -4.948489
 H         0.183319         0.372885        -3.468160
 H         2.906671         1.557108        -0.887756
 H         4.167601         0.247359        -2.037727
 H         3.406034        -1.270823        -1.260340
 H         1.323495        -0.614941         0.787594
