19
Iteration:  3874
 C         2.500622        -1.759753        -3.769622
 C         2.495397        -0.349486        -3.168674
 C         2.131606         0.965420        -3.945030
 C         1.094300         0.331403        -2.940857
 O         1.125185         0.982113        -1.746999
 C         2.298304         0.712189        -1.010328
 C         3.311266        -0.192160        -1.852304
 C         2.071117         0.245942         0.355961
 O         2.690342         0.431634         1.341630
 H         3.279684        -2.203373        -4.342492
 H         2.418053        -2.355409        -2.826274
 H         1.543313        -1.872365        -4.345656
 H         2.558980         1.888576        -3.553431
 H         2.172311         0.773833        -5.005535
 H         0.081883        -0.000390        -3.074659
 H         2.870518         1.670249        -0.869009
 H         4.257632         0.297515        -1.954871
 H         3.419991        -1.199015        -1.358809
 H         1.144451        -0.315524         0.443623
