19
Iteration:  3813charge 0 multiplicity 1
 C         2.556187        -1.706359        -3.963653
 C         2.318773        -0.508315        -3.112351
 C         2.184041         0.822535        -3.960736
 C         1.137954         0.346212        -2.933149
 O         1.033053         1.013844        -1.700603
 C         2.384724         0.791849        -1.049517
 C         3.186735        -0.195399        -1.833395
 C         2.232058         0.204822         0.432170
 O         2.649412         0.542211         1.480662
 H         3.587435        -2.156894        -3.958838
 H         1.847148        -2.503143        -3.757591
 H         2.294009        -1.502412        -5.032901
 H         3.025105         1.530111        -3.487841
 H         1.961956         1.093985        -4.922597
 H         0.104992         0.109830        -3.371403
 H         2.717961         1.805284        -0.983743
 H         4.199599         0.158368        -2.182573
 H         3.346760        -1.112941        -1.283703
 H         1.607888        -0.635079         0.220496
