19
Iteration:  2706
 C         2.538722        -1.796408        -3.808688
 C         2.394651        -0.391160        -3.287265
 C         2.064895         0.951855        -4.011252
 C         1.140093         0.385877        -2.956290
 O         1.159932         0.939126        -1.637314
 C         2.437682         0.705436        -0.995250
 C         3.262126        -0.226115        -1.954572
 C         2.090847         0.256154         0.455018
 O         2.599224         0.554171         1.498194
 H         3.572246        -1.747226        -4.308887
 H         2.516967        -2.566917        -3.064117
 H         1.752342        -2.114025        -4.465734
 H         2.760456         1.792676        -3.901978
 H         1.749903         0.860552        -5.000030
 H         0.183005         0.024208        -3.325617
 H         2.917627         1.732279        -0.960121
 H         4.326559         0.176495        -1.926194
 H         3.244757        -1.312507        -1.822578
 H         1.303126        -0.614876         0.372121
