19
Iteration:  1660charge 0 multiplicity 1
 C         2.695690        -1.804345        -3.839072
 C         2.368065        -0.420227        -3.272822
 C         2.034782         0.823452        -4.140345
 C         1.009973         0.416115        -2.917577
 O         1.165060         1.086671        -1.641396
 C         2.387172         0.843570        -0.978977
 C         3.213344        -0.166526        -1.879581
 C         2.224208         0.181749         0.402197
 O         2.579998         0.434025         1.537051
 H         3.784082        -1.683685        -4.222002
 H         2.632814        -2.569071        -3.050960
 H         1.976998        -2.022714        -4.541958
 H         2.581648         1.661528        -4.044811
 H         1.546852         0.554705        -5.136032
 H         0.098450        -0.019026        -3.151475
 H         2.835167         1.747384        -0.745666
 H         4.250301         0.227737        -2.062495
 H         3.243232        -1.171471        -1.409082
 H         1.550943        -0.788435         0.218165
