19
Iteration:  2274
 C         2.578654        -1.844423        -3.585880
 C         2.405959        -0.343569        -3.194718
 C         2.138313         0.895851        -4.076888
 C         1.172543         0.387111        -2.978889
 O         1.078047         0.979180        -1.669983
 C         2.382819         0.823587        -0.961390
 C         3.238034        -0.025476        -1.940509
 C         1.986837         0.263113         0.384389
 O         2.724888         0.247772         1.296064
 H         3.641731        -1.987819        -3.915183
 H         2.436322        -2.387309        -2.705823
 H         1.988588        -2.224745        -4.460240
 H         2.607653         1.866901        -4.136296
 H         1.596878         0.708871        -5.086914
 H         0.198697        -0.141835        -3.159631
 H         2.933553         1.772222        -0.774278
 H         4.150873         0.569908        -2.055414
 H         3.467566        -0.913608        -1.342439
 H         0.918343        -0.028084         0.524306
