19
Iteration:  1107
 C         2.667408        -1.664835        -3.969152
 C         2.426014        -0.426319        -3.153848
 C         2.066945         0.880831        -3.853667
 C         1.076219         0.275021        -2.918729
 O         1.095578         1.029045        -1.756747
 C         2.350716         0.702107        -0.984301
 C         3.167396        -0.381937        -1.738275
 C         1.949453         0.457871         0.447094
 O         2.870983         0.417269         1.290885
 H         3.743552        -1.835166        -4.114942
 H         2.265168        -2.583945        -3.560935
 H         2.163908        -1.632508        -4.983467
 H         2.336410         1.971683        -3.695726
 H         1.949101         0.850020        -4.932715
 H         0.171528        -0.021874        -3.296557
 H         3.010866         1.631775        -0.875656
 H         4.240844        -0.242077        -1.866709
 H         2.928303        -1.248879        -1.305788
 H         0.904598         0.598625         0.799309
