19
Iteration:  3425
 C         2.795258        -1.825244        -3.654893
 C         2.416682        -0.385933        -3.152908
 C         2.126915         0.752661        -3.993287
 C         1.073501         0.366183        -2.904852
 O         1.013438         1.034968        -1.616808
 C         2.273935         0.974926        -1.021309
 C         3.160176         0.064766        -1.889543
 C         1.970212         0.429838         0.364954
 O         2.833550        -0.017213         1.168860
 H         3.768849        -1.866939        -4.065266
 H         2.903650        -2.615351        -2.900160
 H         2.048998        -2.192174        -4.320964
 H         2.729842         1.637348        -4.016501
 H         1.620147         0.507846        -4.993854
 H         0.081536         0.027149        -3.153546
 H         2.594464         2.026149        -1.023181
 H         4.045045         0.692227        -2.033629
 H         3.504380        -0.888289        -1.418226
 H         0.974527         0.593709         0.772497
