19
Iteration:  3344charge 0 multiplicity 1
 C         2.767853        -1.773881        -3.573686
 C         2.376498        -0.421657        -3.040335
 C         2.046828         0.749083        -4.071123
 C         1.101668         0.385242        -2.953841
 O         1.028927         0.929750        -1.621224
 C         2.328816         1.054457        -1.026113
 C         3.221121         0.179001        -1.907818
 C         2.077125         0.533711         0.409676
 O         2.737584        -0.189422         1.120009
 H         3.833965        -1.936807        -3.788378
 H         2.379320        -2.415238        -2.806590
 H         2.348949        -2.075376        -4.530090
 H         2.620987         1.627371        -4.056105
 H         1.743241         0.342840        -5.022375
 H         0.102448        -0.020982        -3.221107
 H         2.552770         2.114207        -1.016802
 H         4.174097         0.690717        -2.221529
 H         3.550320        -0.719639        -1.368037
 H         1.012671         0.800759         0.667981
