19
Iteration:  2913
 C         2.627648        -1.694562        -3.923033
 C         2.460906        -0.364048        -3.145295
 C         2.237347         1.165427        -3.826571
 C         1.168631         0.426626        -3.100777
 O         0.904277         0.641349        -1.698771
 C         2.169586         0.586208        -1.053797
 C         3.032332        -0.484329        -1.747010
 C         2.056281         0.473279         0.537594
 O         3.015125         0.616028         1.269780
 H         3.724433        -1.970690        -3.923876
 H         2.022309        -2.503181        -3.564272
 H         2.288725        -1.531022        -4.943690
 H         2.818197         2.046658        -3.502564
 H         1.981926         1.154832        -4.883437
 H         0.294746        -0.103204        -3.474655
 H         2.671546         1.565388        -1.151162
 H         4.091779        -0.104817        -1.583583
 H         2.924288        -1.478350        -1.407070
 H         1.066025         0.243049         1.064601
