19
Iteration:  1728
 C         2.519062        -1.802270        -3.872147
 C         2.510990        -0.427386        -3.155397
 C         2.253575         0.936068        -3.907048
 C         1.175257         0.349878        -2.949864
 O         0.996301         0.762170        -1.666031
 C         2.208408         0.869452        -1.021386
 C         3.184648        -0.092237        -1.831452
 C         2.054463         0.363432         0.360073
 O         2.829019         0.414928         1.363883
 H         3.546600        -2.151566        -4.130116
 H         1.988217        -2.481579        -3.270197
 H         1.850274        -1.761821        -4.759416
 H         2.924893         1.796349        -3.537195
 H         1.801429         0.953562        -4.847233
 H         0.192113         0.027037        -3.374719
 H         2.561770         1.876971        -1.107145
 H         4.099960         0.488493        -2.107651
 H         3.523020        -1.064990        -1.435312
 H         1.057940        -0.142102         0.595900
