19
Iteration:  3333charge 0 multiplicity 1
 C         2.784878        -1.735012        -3.501841
 C         2.329164        -0.335262        -3.145205
 C         2.084429         0.747763        -4.084486
 C         1.084428         0.295577        -2.860940
 O         1.078279         0.929439        -1.599837
 C         2.373749         1.013094        -1.026005
 C         3.191356         0.096588        -1.948650
 C         2.028955         0.569519         0.370985
 O         2.707233        -0.181478         1.120608
 H         3.870216        -1.680502        -3.401947
 H         2.520284        -2.540233        -2.843913
 H         2.249421        -1.851658        -4.425482
 H         2.689703         1.595267        -4.042797
 H         1.653674         0.685236        -5.080039
 H         0.122831        -0.189107        -3.133582
 H         2.886062         1.966644        -0.995166
 H         3.824103         0.780177        -2.586248
 H         3.783818        -0.694499        -1.481866
 H         0.928838         0.855147         0.671069
