19
Iteration:  1485charge 0 multiplicity 1
 C         2.453983        -1.750848        -3.867790
 C         2.579043        -0.404300        -3.217833
 C         1.949109         0.755837        -3.987822
 C         1.192534         0.281499        -2.863365
 O         1.214607         0.988341        -1.665392
 C         2.452462         0.899419        -1.031885
 C         3.355634        -0.014422        -1.912017
 C         2.081149         0.171202         0.333566
 O         2.505682         0.406938         1.509264
 H         3.308963        -2.007974        -4.589675
 H         2.260477        -2.542390        -3.178294
 H         1.648425        -1.574044        -4.477455
 H         2.408164         1.914005        -4.102122
 H         1.591717         0.632828        -5.005291
 H         0.108681        -0.129869        -2.961812
 H         2.936931         1.860179        -0.833031
 H         4.454461         0.333529        -2.064537
 H         3.485408        -0.931715        -1.300716
 H         1.133258        -0.396547         0.246868
