19
Iteration:  3145
 C         2.755911        -1.795201        -3.651213
 C         2.456705        -0.375500        -3.042617
 C         2.031704         0.790357        -3.852601
 C         1.046321         0.242265        -2.835971
 O         0.985573         1.084165        -1.711243
 C         2.225515         0.949819        -1.035726
 C         3.317480         0.054005        -1.866847
 C         2.024736         0.484205         0.335266
 O         2.832237        -0.076740         1.017191
 H         3.829500        -2.160965        -3.396641
 H         2.012637        -2.482228        -3.215251
 H         2.461773        -1.847205        -4.740583
 H         2.421372         1.833706        -3.753057
 H         1.723938         0.580645        -4.874181
 H         0.162468        -0.301948        -3.158658
 H         2.742262         1.964076        -0.893108
 H         4.152941         0.877945        -2.193194
 H         3.799568        -0.815365        -1.281597
 H         0.931285         0.761681         0.659763
