19
Iteration:  1194charge 0 multiplicity 1
 C         2.473649        -1.705496        -3.915421
 C         2.436027        -0.377057        -3.113507
 C         2.318304         0.989037        -3.696728
 C         1.189475         0.408939        -3.050567
 O         0.977159         0.778139        -1.734848
 C         2.129682         0.642463        -1.003457
 C         3.119469        -0.334014        -1.786720
 C         2.093209         0.173619         0.470776
 O         2.919254         0.760580         1.175929
 H         3.455689        -2.126863        -4.190558
 H         1.694825        -2.355030        -3.491387
 H         2.087968        -1.391669        -4.969757
 H         2.810591         1.736894        -3.167285
 H         2.376707         0.976162        -4.855934
 H         0.238490         0.036241        -3.432575
 H         2.632135         1.666105        -0.910655
 H         4.182328         0.018991        -1.752317
 H         3.098649        -1.295813        -1.271158
 H         1.587096        -0.704963         0.788831
