19
Iteration:  1141
 C         2.538751        -1.697939        -3.913961
 C         2.421863        -0.354734        -3.232342
 C         2.197090         0.974393        -3.933127
 C         1.142599         0.352071        -2.994438
 O         1.004879         0.709832        -1.627331
 C         2.413272         0.814876        -1.041989
 C         3.122015        -0.329329        -1.813591
 C         2.072245         0.421379         0.412709
 O         2.837432         0.502439         1.424827
 H         3.460267        -2.119758        -3.640334
 H         1.711004        -2.316614        -3.547009
 H         2.618435        -1.579906        -5.054038
 H         2.649344         1.846689        -3.574387
 H         1.891497         0.755534        -4.990116
 H         0.130270         0.080673        -3.437844
 H         2.821945         1.887265        -1.082849
 H         4.201423        -0.356664        -1.760111
 H         2.839524        -1.179651        -1.314059
 H         0.935735         0.157755         0.508463
