19
Iteration:  2866
 C         2.610763        -1.597600        -4.159331
 C         2.408847        -0.492037        -3.102859
 C         2.297480         0.961958        -3.693670
 C         1.160482         0.334702        -3.028978
 O         0.900233         0.733040        -1.695983
 C         2.247339         0.694763        -1.019311
 C         3.017470        -0.462179        -1.644833
 C         2.146932         0.399696         0.391948
 O         2.912877         0.718238         1.301030
 H         3.564450        -1.437855        -4.533003
 H         2.517912        -2.605389        -3.717049
 H         1.822456        -1.628488        -4.897600
 H         2.745639         1.802127        -3.160027
 H         2.211146         1.071289        -4.807464
 H         0.202898         0.462867        -3.552227
 H         2.680931         1.673535        -1.103936
 H         4.034194        -0.201857        -1.681332
 H         2.920066        -1.399464        -1.114026
 H         1.243966        -0.286941         0.634538
