19
Iteration:  3910charge 0 multiplicity 1
 C         2.522212        -1.770324        -3.975173
 C         2.384492        -0.461069        -3.089862
 C         2.226527         0.742863        -3.997340
 C         1.184396         0.391248        -2.920626
 O         1.034045         0.994064        -1.620825
 C         2.241764         0.955351        -1.002348
 C         3.321408        -0.143184        -1.879206
 C         2.052461         0.344230         0.459431
 O         2.739973         0.304550         1.382089
 H         3.371007        -1.873766        -4.625418
 H         2.345353        -2.596256        -3.293678
 H         1.512058        -1.825643        -4.426185
 H         2.957333         1.577604        -4.067335
 H         2.129794         0.443442        -5.009374
 H         0.146235         0.173128        -3.348086
 H         2.667640         1.984505        -0.961796
 H         4.210471         0.511623        -1.933023
 H         3.629872        -0.935874        -1.221663
 H         1.070753        -0.204981         0.239403
