19
Iteration:  1289charge 0 multiplicity 1
 C         2.544402        -1.568883        -4.170717
 C         2.500815        -0.438742        -3.109830
 C         2.188991         0.916656        -3.811681
 C         1.108070         0.257086        -2.948085
 O         1.081934         0.817805        -1.678870
 C         2.335183         0.657338        -1.020685
 C         3.087180        -0.503128        -1.691356
 C         2.019608         0.581254         0.439963
 O         2.846422         0.569208         1.337729
 H         3.582527        -1.563483        -4.796063
 H         2.364628        -2.493425        -3.600424
 H         1.709700        -1.470438        -4.799946
 H         2.573076         1.849017        -3.482397
 H         2.160662         0.916084        -4.991303
 H         0.211346        -0.129903        -3.261246
 H         3.009851         1.598770        -1.054262
 H         4.173425        -0.261911        -1.538982
 H         2.628172        -1.452364        -1.162314
 H         0.952882         0.735438         0.560265
