19
Iteration:  1889
 C         2.516364        -1.576855        -3.971423
 C         2.488375        -0.399210        -3.139668
 C         2.309062         0.936378        -3.825073
 C         1.148030         0.317909        -2.970283
 O         0.988501         0.619718        -1.638818
 C         2.290223         0.772951        -1.084960
 C         3.104887        -0.326958        -1.712007
 C         2.049600         0.482131         0.412653
 O         2.844165         0.546977         1.280099
 H         3.503319        -1.843763        -4.337617
 H         1.999319        -2.373762        -3.388182
 H         1.938276        -1.558765        -4.828950
 H         2.940896         1.890109        -3.596489
 H         2.214165         0.806815        -4.856143
 H         0.103761         0.108546        -3.383668
 H         2.615375         1.824799        -1.244157
 H         4.208662        -0.185227        -1.719939
 H         2.930975        -1.263101        -1.165853
 H         0.973193         0.187713         0.415637
