19
Iteration:   726
 C         2.462190        -1.682614        -4.086402
 C         2.473643        -0.372956        -3.234061
 C         2.309273         0.901853        -3.891944
 C         1.187025         0.336890        -3.028892
 O         1.110471         0.828339        -1.659121
 C         2.345730         0.616426        -0.993815
 C         3.129632        -0.478097        -1.772117
 C         1.982445         0.572556         0.489146
 O         2.728553         0.558694         1.485397
 H         1.916975        -2.525788        -3.584793
 H         2.162343        -1.566152        -5.167155
 H         3.561082        -1.883629        -4.292032
 H         2.817755         1.832257        -3.479781
 H         2.142768         1.046311        -4.967429
 H         0.204664         0.082687        -3.304094
 H         2.816241         1.647976        -1.166874
 H         4.160978        -0.142111        -1.567033
 H         2.900210        -1.423560        -1.457191
 H         0.841851         0.749133         0.653331
