19
Iteration:   791
 C         2.526717        -1.659476        -4.057563
 C         2.393350        -0.448180        -3.174350
 C         2.387731         0.943174        -3.763105
 C         1.172433         0.377966        -2.944960
 O         1.089405         0.966968        -1.756966
 C         2.245152         0.674538        -1.011264
 C         3.006425        -0.534015        -1.706172
 C         2.007194         0.268902         0.513424
 O         2.791836         0.702617         1.287556
 H         2.962619        -2.418680        -3.425139
 H         1.799870        -1.825271        -4.829608
 H         3.443259        -1.423522        -4.734093
 H         3.042755         1.806483        -3.477706
 H         2.253973         0.928577        -4.917363
 H         0.215120         0.308357        -3.511439
 H         3.015945         1.485409        -0.905868
 H         4.151600        -0.434605        -1.665452
 H         2.665751        -1.527331        -1.316858
 H         1.102438        -0.336308         0.686238
