19
Iteration:  2733charge 0 multiplicity 1
 C         2.422761        -1.708344        -3.905046
 C         2.455093        -0.405964        -3.131305
 C         2.204246         0.865668        -3.880897
 C         1.123846         0.252640        -2.974471
 O         1.123272         0.937139        -1.632821
 C         2.373500         0.820944        -0.987842
 C         3.243141        -0.181281        -1.843049
 C         2.235789         0.132327         0.326408
 O         2.561478         0.642325         1.387584
 H         3.393832        -1.993946        -4.243829
 H         1.889140        -2.622910        -3.403122
 H         1.783158        -1.468865        -4.856194
 H         2.555738         1.882899        -3.618868
 H         1.999037         0.745584        -4.989660
 H         0.177428        -0.118011        -3.373552
 H         2.783327         1.811864        -0.839002
 H         4.258641         0.141592        -2.028353
 H         3.247804        -1.216062        -1.553371
 H         1.878505        -0.992630         0.255679
