19
Iteration:   504charge 0 multiplicity 1
 C         2.640311        -1.695005        -3.942459
 C         2.461419        -0.424863        -3.134812
 C         2.268079         0.954077        -3.822884
 C         1.194138         0.353185        -2.972019
 O         1.000967         0.818265        -1.674104
 C         2.230996         0.821655        -1.068842
 C         3.041418        -0.438969        -1.683558
 C         2.037414         0.784194         0.445189
 O         2.751239         0.206946         1.186315
 H         2.459965        -2.645403        -3.435762
 H         2.238339        -1.624869        -4.914941
 H         3.830474        -1.798507        -3.925502
 H         3.062610         1.639163        -3.489257
 H         2.004814         0.792486        -4.829024
 H         0.303004         0.026930        -3.575836
 H         2.845883         1.776650        -1.288806
 H         4.120421        -0.209185        -1.633972
 H         2.944333        -1.292918        -1.063912
 H         1.285735         1.412136         0.773244
