19
Iteration:  3195charge 0 multiplicity 1
 C         2.638802        -1.743594        -3.554590
 C         2.536936        -0.295281        -3.081751
 C         2.008264         0.741502        -4.085527
 C         1.178932         0.302318        -2.912994
 O         0.965051         0.928135        -1.651833
 C         2.287226         1.000754        -1.029165
 C         3.285705         0.162680        -1.837929
 C         1.997998         0.518191         0.409294
 O         2.830133        -0.176961         1.064063
 H         3.593962        -2.023460        -3.933837
 H         2.562789        -2.507508        -2.729185
 H         1.794085        -1.882119        -4.196661
 H         2.480518         1.685437        -4.082242
 H         1.708005         0.449383        -5.143049
 H         0.274938        -0.246757        -3.267705
 H         2.705796         1.979495        -1.011556
 H         4.102215         0.753343        -2.012223
 H         3.500122        -0.728583        -1.288186
 H         0.974918         0.987456         0.834509
