19
Iteration:  2303
 C         2.563441        -1.764266        -3.721504
 C         2.454114        -0.432014        -3.037225
 C         2.208528         0.800656        -3.879333
 C         1.063045         0.276076        -2.974800
 O         0.962291         1.091430        -1.808009
 C         2.335599         0.937455        -1.033151
 C         3.271315        -0.041822        -1.816319
 C         1.997896         0.320145         0.333721
 O         2.818441         0.188751         1.271899
 H         3.492429        -1.910106        -4.193565
 H         2.246219        -2.594902        -2.994222
 H         1.908046        -1.970685        -4.587769
 H         2.608600         1.890274        -3.720543
 H         2.077181         0.648827        -4.962323
 H         0.206788        -0.317345        -3.272100
 H         2.886514         1.887872        -0.932192
 H         4.269570         0.478660        -2.016234
 H         3.648105        -0.813549        -1.131164
 H         1.059047        -0.194937         0.588338
