19
Iteration:   381
 C         2.392502        -1.720507        -3.972057
 C         2.529304        -0.449611        -3.170751
 C         2.323431         0.880959        -3.922873
 C         1.257274         0.291267        -2.958399
 O         1.058615         0.869381        -1.600890
 C         2.341722         0.842549        -1.028161
 C         3.211926        -0.247167        -1.808003
 C         2.000643         0.381216         0.375803
 O         2.656259         0.505739         1.404443
 H         1.750993        -2.468696        -3.600780
 H         1.853123        -1.511798        -4.902127
 H         3.486929        -2.053595        -4.268840
 H         2.909987         1.715097        -3.523929
 H         1.952618         0.917370        -4.979494
 H         0.267240        -0.103387        -3.239745
 H         2.898614         1.774287        -1.051602
 H         4.224445         0.069046        -1.846926
 H         3.250691        -1.240991        -1.421402
 H         0.912552        -0.099787         0.461561
