19
Iteration:  5000
 C         2.549249        -1.665044        -4.061450
 C         2.436631        -0.487362        -3.116303
 C         2.330865         0.875567        -3.844219
 C         1.197154         0.381734        -3.086462
 O         1.022713         0.873407        -1.722012
 C         2.235473         0.843924        -1.042365
 C         2.928769        -0.444975        -1.672528
 C         2.078204         0.442880         0.508300
 O         2.941988         0.521991         1.331314
 H         3.549104        -1.619489        -4.561352
 H         2.360548        -2.668262        -3.425764
 H         1.696937        -1.661369        -4.770426
 H         2.779495         1.867815        -3.439497
 H         2.217891         0.826171        -4.963756
 H         0.239578         0.297963        -3.454188
 H         2.634801         1.888572        -0.877609
 H         4.001800        -0.583025        -1.479246
 H         2.518904        -1.376701        -1.151469
 H         1.122797         0.085092         0.814692
