19
Iteration:  3945charge 0 multiplicity 1
 C         2.592585        -1.713248        -3.736143
 C         2.430174        -0.382490        -3.143326
 C         2.092696         0.968094        -3.945916
 C         1.100113         0.299271        -2.980986
 O         1.140900         1.050395        -1.717827
 C         2.284470         0.826685        -1.051651
 C         3.181238        -0.284452        -1.799304
 C         1.991316         0.322330         0.426300
 O         2.828053         0.308882         1.257734
 H         3.587832        -2.081760        -4.136191
 H         2.432709        -2.332161        -2.887306
 H         1.943202        -1.988874        -4.525975
 H         2.612081         1.755334        -3.511490
 H         2.102099         0.701139        -5.069684
 H         0.158294        -0.067600        -3.383166
 H         2.787159         1.793909        -1.051252
 H         4.223631         0.127446        -1.950436
 H         3.226466        -1.259931        -1.359018
 H         0.978902        -0.083469         0.666472
