19
Iteration:   289charge 0 multiplicity 1
 C         2.379423        -1.602442        -4.092309
 C         2.382174        -0.425386        -3.202644
 C         2.305263         0.873012        -3.812424
 C         1.125041         0.298105        -2.805026
 O         1.250947         0.864966        -1.558168
 C         2.644394         0.696904        -1.042571
 C         3.231084        -0.444788        -1.935319
 C         2.270882         0.205062         0.406365
 O         2.180562         0.869230         1.383233
 H         2.131699        -2.567218        -3.490630
 H         1.527382        -1.707628        -4.827405
 H         3.378350        -1.634630        -4.568468
 H         2.952912         1.601344        -3.426202
 H         1.915541         0.847929        -4.823414
 H         0.236428         0.124980        -3.331685
 H         3.128243         1.724252        -1.109780
 H         4.329224        -0.424387        -2.062548
 H         3.064137        -1.347637        -1.464916
 H         1.987331        -0.812093         0.384201
