19
Iteration:  4553
 C         2.522783        -1.686408        -3.822843
 C         2.453768        -0.358235        -3.116326
 C         2.406407         1.005338        -3.718004
 C         1.173248         0.414066        -3.065486
 O         0.932897         0.761864        -1.699426
 C         2.217017         0.705126        -1.079328
 C         2.981156        -0.436627        -1.743297
 C         2.030919         0.546458         0.397238
 O         2.973317         0.425480         1.163712
 H         3.562818        -1.999136        -3.688255
 H         1.927432        -2.420617        -3.155202
 H         2.137042        -1.734031        -4.892444
 H         2.908561         1.973425        -3.557608
 H         2.215420         0.924965        -4.768317
 H         0.279548         0.142045        -3.522202
 H         2.751524         1.649689        -1.353200
 H         4.049190        -0.153513        -1.672787
 H         2.824679        -1.438898        -1.229960
 H         1.049011         0.519822         0.843510
