19
Iteration:  1891
 C         2.512291        -1.575749        -3.972307
 C         2.495396        -0.395873        -3.129777
 C         2.315767         0.922077        -3.842720
 C         1.144055         0.319614        -2.961802
 O         0.984361         0.628947        -1.634519
 C         2.296303         0.782595        -1.083675
 C         3.108619        -0.317870        -1.710496
 C         2.041051         0.463017         0.426453
 O         2.842348         0.549695         1.272226
 H         3.562895        -1.836381        -4.349966
 H         2.019621        -2.381564        -3.439327
 H         1.899645        -1.533626        -4.903196
 H         2.938252         1.787173        -3.548777
 H         2.151974         0.779527        -4.896034
 H         0.129811         0.119227        -3.348411
 H         2.652221         1.861502        -1.291155
 H         4.211431        -0.177052        -1.734063
 H         2.915078        -1.252245        -1.142640
 H         0.958869         0.138884         0.409056
