19
Iteration:    15
 C         2.788764        -1.826425        -3.751706
 C         2.478794        -0.389468        -3.117903
 C         2.175258         0.932772        -3.886729
 C         1.098031         0.392553        -2.992269
 O         0.899590         0.859378        -1.626879
 C         2.222285         0.937923        -1.052057
 C         3.106611        -0.193727        -1.719400
 C         1.958773         0.582912         0.357652
 O         2.907739         0.143664         1.113372
 H         2.677994        -2.752971        -3.232949
 H         2.366601        -1.796889        -4.944244
 H         3.943113        -1.834280        -3.907591
 H         2.884789         1.648580        -3.492297
 H         2.284822         0.939979        -5.005159
 H         0.120068         0.079899        -3.320968
 H         2.586992         1.915863        -1.233761
 H         4.222271         0.004203        -1.464628
 H         2.706123        -1.187040        -1.239373
 H         0.967109         0.430749         0.663190
