19
Iteration:  4159charge 0 multiplicity 1
 C         2.507441        -1.709518        -3.963279
 C         2.504020        -0.364232        -3.242238
 C         2.307590         1.036088        -3.859835
 C         1.155573         0.387852        -3.039109
 O         0.932879         0.764164        -1.634749
 C         2.281480         0.777274        -1.025197
 C         3.071813        -0.428297        -1.743949
 C         2.201732         0.369488         0.408226
 O         2.842854         0.584334         1.362247
 H         3.430558        -2.214962        -4.017442
 H         1.950634        -2.313763        -3.179367
 H         1.876833        -1.763690        -4.918090
 H         2.915454         1.810174        -3.526807
 H         2.071601         0.877193        -4.890213
 H         0.239502         0.198517        -3.509647
 H         2.551019         1.821761        -1.146147
 H         4.086091        -0.575385        -1.423993
 H         2.516360        -1.255451        -1.225591
 H         1.226662        -0.236120         0.444164
