19
Iteration:   847charge 0 multiplicity 1
 C         2.425686        -1.756529        -3.836931
 C         2.453085        -0.359395        -3.146146
 C         2.460004         1.041301        -3.797647
 C         1.280066         0.515880        -3.094953
 O         0.953764         0.681079        -1.660285
 C         2.236961         0.754390        -1.028326
 C         3.039089        -0.387915        -1.753782
 C         2.071465         0.285782         0.398774
 O         2.802456         0.611515         1.261309
 H         1.544744        -2.368845        -3.530201
 H         2.075364        -1.568405        -4.894326
 H         3.424201        -2.240601        -4.006499
 H         3.252763         1.677014        -3.375595
 H         2.346334         1.253637        -4.918412
 H         0.292899         0.307870        -3.561389
 H         2.778815         1.750471        -1.120188
 H         4.123707        -0.083343        -1.760095
 H         2.885554        -1.378209        -1.205214
 H         1.204268        -0.410138         0.527219
