19
Iteration:  3452charge 0 multiplicity 1
 C         2.682417        -1.774009        -3.604561
 C         2.423153        -0.350254        -3.132408
 C         1.997787         0.856093        -3.995941
 C         1.086592         0.308089        -3.010398
 O         1.041497         0.985829        -1.730000
 C         2.357879         0.848885        -1.036074
 C         3.282067        -0.001846        -1.932169
 C         2.043565         0.402972         0.447371
 O         2.758646         0.070020         1.305491
 H         3.804568        -1.699792        -3.815308
 H         2.693593        -2.642536        -2.904483
 H         2.105932        -2.045523        -4.575600
 H         2.463369         1.874780        -3.785647
 H         1.805781         0.641845        -4.992206
 H         0.151494        -0.238968        -3.213873
 H         2.677614         1.928306        -1.076659
 H         3.983318         0.806951        -2.173529
 H         3.745658        -0.886120        -1.531952
 H         0.907069         0.617930         0.691458
