19
Iteration:   439charge 0 multiplicity 1
 C         2.706326        -1.763070        -3.780023
 C         2.447884        -0.388113        -3.148694
 C         2.417818         0.913918        -3.899307
 C         1.158039         0.443991        -3.141802
 O         0.890453         0.955603        -1.660622
 C         2.073565         0.812088        -1.008484
 C         2.913147        -0.281017        -1.636195
 C         1.980584         0.515835         0.478405
 O         3.026611         0.205539         1.075122
 H         2.536232        -2.425982        -2.902978
 H         2.236103        -2.046499        -4.672760
 H         3.780162        -2.042035        -3.895851
 H         3.141175         1.762062        -3.746990
 H         2.424040         0.571307        -4.923629
 H         0.182779         0.140772        -3.495662
 H         2.711024         1.679631        -1.067528
 H         4.019563        -0.104844        -1.468165
 H         2.585210        -1.307464        -1.240406
 H         0.964572         0.891112         1.065417
