19
Iteration:  3223charge 0 multiplicity 1
 C         2.803056        -1.788363        -3.452507
 C         2.401377        -0.364877        -3.112854
 C         2.017542         0.847434        -3.945138
 C         1.047532         0.284780        -2.955671
 O         0.999629         1.011427        -1.692433
 C         2.338535         0.966274        -1.079958
 C         3.198554         0.085207        -1.941678
 C         2.064465         0.542125         0.440140
 O         2.771937        -0.193217         1.056642
 H         3.675524        -2.013510        -4.169699
 H         3.191606        -2.236857        -2.541296
 H         1.953449        -2.417072        -3.824742
 H         2.433582         1.807843        -3.575023
 H         1.907943         0.792748        -5.019796
 H         0.086420        -0.000017        -3.334892
 H         2.915366         1.960879        -1.112970
 H         4.003224         0.822715        -2.400384
 H         3.584255        -0.807533        -1.322442
 H         1.069234         0.851720         0.697186
