19
Iteration:   770charge 0 multiplicity 1
 C         2.610017        -1.614807        -4.109905
 C         2.417020        -0.465339        -3.102334
 C         2.270254         0.845320        -3.844954
 C         1.167631         0.436722        -2.985304
 O         1.119994         0.918096        -1.625638
 C         2.412321         0.607372        -1.025843
 C         2.991426        -0.562677        -1.735221
 C         2.032507         0.489677         0.416429
 O         2.686700         0.641761         1.371154
 H         2.880736        -2.569872        -3.582036
 H         1.740990        -1.604762        -4.827110
 H         3.381239        -1.369231        -4.921428
 H         2.655714         1.804490        -3.393871
 H         2.303346         1.019758        -4.974861
 H         0.134158         0.138061        -3.279956
 H         3.225225         1.427610        -1.020217
 H         4.099157        -0.448754        -1.699414
 H         2.598110        -1.465696        -1.346295
 H         0.885455         0.022441         0.433618
