19
Iteration:  1645charge 0 multiplicity 1
 C         2.701007        -1.718665        -3.817453
 C         2.297442        -0.398208        -3.144028
 C         1.990135         0.753485        -4.023533
 C         1.126652         0.392488        -2.954281
 O         1.146527         1.082448        -1.659616
 C         2.507513         0.828984        -1.043490
 C         3.161113        -0.167366        -2.006372
 C         2.198159         0.155729         0.460547
 O         2.524720         0.433712         1.530865
 H         3.645925        -1.656132        -4.362413
 H         2.955693        -2.578278        -3.028969
 H         2.014389        -2.176051        -4.646529
 H         2.625870         1.755225        -4.018505
 H         1.656369         0.484563        -4.967705
 H        -0.005615         0.288794        -3.146110
 H         3.135207         1.795780        -1.091539
 H         4.071099         0.278797        -2.379378
 H         3.439159        -1.095868        -1.427861
 H         1.552705        -0.762033         0.147479
