19
Iteration:  4097
 C         2.665662        -1.656499        -4.125189
 C         2.345514        -0.536492        -3.134435
 C         2.264278         0.904361        -3.788409
 C         1.119135         0.372030        -2.986561
 O         1.029597         0.917380        -1.709604
 C         2.207689         0.658482        -0.982030
 C         3.005237        -0.420960        -1.701808
 C         2.006854         0.584109         0.520917
 O         2.952854         0.484612         1.269734
 H         3.702755        -1.535411        -4.597275
 H         2.606743        -2.606588        -3.591806
 H         1.901485        -1.811692        -4.879910
 H         2.930337         1.800781        -3.470676
 H         2.043636         1.035230        -4.812266
 H         0.235840         0.106941        -3.496537
 H         2.949510         1.501117        -1.054131
 H         4.095751        -0.068899        -1.744059
 H         3.069806        -1.361149        -1.140348
 H         0.996044         0.388581         0.858644
