19
Iteration:   100charge 0 multiplicity 1
 C         2.558656        -1.625995        -4.001684
 C         2.452225        -0.420990        -3.120710
 C         2.386426         0.964416        -3.811206
 C         1.140790         0.337779        -3.065643
 O         0.897084         0.673666        -1.643586
 C         2.311818         0.783099        -1.026428
 C         3.103259        -0.396827        -1.710098
 C         2.049835         0.478996         0.430235
 O         2.836678         0.562081         1.296018
 H         2.107501        -2.435207        -3.470046
 H         1.981552        -1.601810        -4.893265
 H         3.580341        -1.750634        -4.241122
 H         2.723983         1.869440        -3.322646
 H         2.344733         0.926395        -4.907076
 H         0.249212         0.011788        -3.630047
 H         2.615847         1.865725        -1.211488
 H         4.189474        -0.302068        -1.760180
 H         3.035159        -1.317730        -1.172720
 H         1.020580         0.254614         0.502231
