19
Iteration:  4297charge 0 multiplicity 1
 C         2.473099        -1.673288        -4.009088
 C         2.309983        -0.543419        -3.095365
 C         2.192179         0.858472        -3.931058
 C         1.135229         0.372060        -2.903998
 O         1.181035         1.094949        -1.693932
 C         2.431591         0.704998        -0.999695
 C         3.235742        -0.380641        -1.871642
 C         2.045448         0.208231         0.421304
 O         2.637372         0.635202         1.432072
 H         3.529663        -1.660496        -4.484425
 H         2.523792        -2.600421        -3.468558
 H         1.751524        -1.636788        -4.784492
 H         2.719468         1.846638        -3.774283
 H         1.954495         0.533898        -4.991159
 H         0.187667         0.146675        -3.247343
 H         2.929066         1.642137        -0.684614
 H         4.108185         0.156780        -2.272859
 H         3.576671        -1.294945        -1.355587
 H         1.365999        -0.620235         0.597532
