19
Iteration:  2507charge 0 multiplicity 1
 C         2.728549        -1.761642        -3.903138
 C         2.413183        -0.404234        -3.103053
 C         2.149400         0.848602        -3.850113
 C         1.074681         0.291830        -2.955451
 O         0.970265         0.964339        -1.714640
 C         2.296207         0.816298        -1.025087
 C         3.095064        -0.293934        -1.776472
 C         2.050843         0.714279         0.453579
 O         2.858340         0.191227         1.245179
 H         3.729035        -1.710316        -4.518222
 H         2.732685        -2.553545        -3.176099
 H         2.075419        -1.946380        -4.738000
 H         2.618942         1.728444        -3.495373
 H         2.233536         0.908752        -4.947693
 H         0.199975        -0.209572        -3.402241
 H         2.858328         1.768062        -1.236390
 H         4.137208        -0.012400        -1.899471
 H         3.105451        -1.340393        -1.305309
 H         0.976941         1.079539         0.809953
