19
Iteration:  1555
 C         2.531215        -1.816914        -3.757341
 C         2.375626        -0.407187        -3.258530
 C         2.000816         0.805823        -4.067398
 C         1.148007         0.407432        -2.878855
 O         1.188409         0.998504        -1.561542
 C         2.466082         0.835734        -1.001060
 C         3.366985        -0.006176        -2.061787
 C         2.263818         0.041183         0.372990
 O         2.369067         0.493821         1.496163
 H         3.556459        -2.051669        -4.058127
 H         2.236512        -2.512615        -2.961275
 H         1.903200        -1.966620        -4.731269
 H         2.709625         1.520800        -4.038971
 H         1.532737         0.930606        -5.084808
 H         0.192670         0.272859        -3.270159
 H         2.875000         1.890629        -0.722317
 H         4.318333         0.446786        -2.350804
 H         3.648255        -0.937173        -1.581330
 H         1.891911        -1.040722         0.341728
