19
Iteration:   966
 C         2.569168        -1.729679        -3.872596
 C         2.409544        -0.420761        -3.046952
 C         2.271538         0.895545        -3.883733
 C         1.163675         0.319540        -2.988677
 O         1.015419         1.021781        -1.709343
 C         2.251362         0.803683        -1.010251
 C         3.126754        -0.260665        -1.784097
 C         1.966354         0.422966         0.408903
 O         2.882377         0.299586         1.237584
 H         2.067244        -1.734987        -4.799635
 H         3.578651        -1.904677        -4.200101
 H         2.424896        -2.517043        -3.032567
 H         2.720256         1.937236        -3.674526
 H         2.059717         0.695108        -4.955069
 H         0.284511        -0.056246        -3.439343
 H         2.770799         1.736693        -0.947816
 H         4.212532         0.089677        -1.959600
 H         3.118193        -1.280014        -1.230037
 H         0.922634         0.266321         0.576879
