19
Iteration:  1993
 C         2.461233        -1.740970        -3.847702
 C         2.383647        -0.389064        -3.139100
 C         2.132246         0.864038        -3.946236
 C         1.171833         0.217734        -2.922777
 O         1.093099         0.939513        -1.646801
 C         2.440478         0.928456        -1.069826
 C         3.302878        -0.107296        -1.870285
 C         2.125247         0.217139         0.289330
 O         2.603566         0.442505         1.452119
 H         3.517247        -2.061827        -4.055213
 H         2.218197        -2.576137        -3.190250
 H         1.821045        -1.666661        -4.790493
 H         2.759878         1.770062        -3.639143
 H         1.888112         0.640483        -4.930398
 H         0.198150        -0.212489        -3.173014
 H         2.736581         2.011628        -0.955136
 H         4.188199         0.447010        -2.109632
 H         3.548208        -1.053935        -1.302759
 H         1.388185        -0.545117         0.008748
