19
Iteration:  1248
 C         2.689449        -1.659748        -4.168466
 C         2.314467        -0.454927        -3.232212
 C         2.223155         0.935998        -3.815684
 C         1.136500         0.381307        -3.041861
 O         1.046094         0.792602        -1.604496
 C         2.341008         0.687257        -1.003625
 C         2.965576        -0.529583        -1.728836
 C         2.099988         0.483353         0.518296
 O         2.865870         0.679557         1.393716
 H         3.668081        -1.522824        -4.664529
 H         2.856644        -2.577970        -3.624699
 H         1.847863        -1.964343        -4.818251
 H         2.826304         1.725707        -3.500720
 H         2.008928         1.034771        -4.936839
 H         0.088404         0.347791        -3.367890
 H         2.922610         1.603892        -1.149204
 H         4.074850        -0.383361        -1.779698
 H         2.535115        -1.469954        -1.192774
 H         0.965771         0.272768         0.745221
