19
Iteration:  3402
 C         2.694852        -1.707626        -3.634561
 C         2.461978        -0.332811        -2.973552
 C         2.068547         0.767513        -3.987692
 C         1.116813         0.237351        -2.942094
 O         0.932866         1.056359        -1.773477
 C         2.246070         1.016212        -1.031537
 C         3.297998         0.003324        -1.710915
 C         1.999605         0.476456         0.370846
 O         2.887193        -0.090249         1.014773
 H         3.595249        -1.894178        -4.156570
 H         2.759646        -2.528822        -2.881075
 H         1.802215        -1.919293        -4.111481
 H         2.462206         1.789695        -3.875797
 H         1.825281         0.463119        -4.997583
 H         0.213480        -0.310749        -3.142153
 H         2.574974         2.059394        -1.049819
 H         4.288356         0.482916        -1.788822
 H         3.389224        -0.933410        -1.077354
 H         0.963839         0.541125         0.781306
