19
Iteration:  4674charge 0 multiplicity 1
 C         2.462886        -1.759846        -3.887761
 C         2.412729        -0.430190        -3.182315
 C         2.283057         0.890270        -3.984263
 C         1.157578         0.432792        -3.068124
 O         1.121093         0.910799        -1.699898
 C         2.294029         0.747711        -1.008385
 C         3.099633        -0.320093        -1.875002
 C         2.062786         0.352050         0.550360
 O         2.756544         0.526452         1.482909
 H         3.458017        -1.901811        -4.283150
 H         2.107309        -2.658366        -3.271110
 H         1.707920        -1.585363        -4.632474
 H         3.032328         1.652234        -3.636134
 H         2.087884         0.876758        -5.121124
 H         0.218903         0.103610        -3.629974
 H         2.975208         1.671896        -1.021363
 H         4.053651         0.250459        -2.101126
 H         3.491655        -1.192862        -1.350978
 H         1.176129        -0.418639         0.655247
