19
Iteration:  3098charge 0 multiplicity 1
 C         2.761083        -1.696704        -3.614697
 C         2.501332        -0.298952        -3.181639
 C         1.999803         0.799008        -4.061062
 C         1.088424         0.349818        -2.935424
 O         0.921200         1.022584        -1.699599
 C         2.271545         0.901963        -1.083408
 C         3.182375        -0.044804        -1.796585
 C         2.031876         0.476806         0.442264
 O         2.916314        -0.074386         1.209477
 H         3.873231        -1.748572        -3.799866
 H         2.538903        -2.417126        -2.775278
 H         2.200763        -2.114575        -4.452701
 H         2.359548         1.805894        -4.172878
 H         1.903992         0.285286        -5.086182
 H         0.146227        -0.174195        -3.208541
 H         2.728810         1.937100        -0.975861
 H         4.271204         0.322008        -1.911126
 H         3.210039        -0.944279        -1.157839
 H         0.953631         0.764204         0.803221
