19
Iteration:  3663charge 0 multiplicity 1
 C         2.630779        -1.633053        -4.098934
 C         2.489312        -0.365870        -3.236494
 C         2.196134         1.047769        -3.813691
 C         1.144128         0.326900        -3.037108
 O         0.966067         0.667859        -1.608646
 C         2.310131         0.587312        -1.045317
 C         2.978106        -0.476050        -1.793103
 C         2.128545         0.413869         0.570922
 O         2.864507         0.806320         1.365585
 H         3.775877        -1.841865        -4.225574
 H         2.251172        -2.554292        -3.557132
 H         2.235282        -1.580332        -5.097574
 H         2.738400         1.776556        -3.155681
 H         2.151093         1.155443        -4.837880
 H         0.196966         0.034837        -3.602489
 H         2.962593         1.531762        -1.134570
 H         4.051186        -0.785042        -1.586840
 H         2.364289        -1.370653        -1.489928
 H         1.084689        -0.013855         0.688301
