19
Iteration:    43charge 0 multiplicity 1
 C         2.761926        -1.626152        -3.693397
 C         2.399493        -0.370581        -3.079599
 C         2.292035         0.914595        -3.800498
 C         1.119967         0.317099        -3.067305
 O         0.911879         0.914244        -1.805984
 C         2.107945         0.766773        -1.043330
 C         2.945211        -0.295619        -1.724626
 C         2.058917         0.459133         0.442722
 O         3.014908         0.271835         1.102478
 H         2.497748        -2.544485        -3.089848
 H         2.528097        -1.663827        -4.660700
 H         3.826482        -1.728005        -3.621926
 H         2.829897         1.800883        -3.486555
 H         2.320234         0.781667        -4.876140
 H         0.148753         0.136252        -3.499789
 H         2.623846         1.795400        -1.148318
 H         3.925997         0.081058        -1.703814
 H         2.857030        -1.249346        -1.298626
 H         1.009876         0.365807         0.883783
