19
Iteration:  1741
 C         2.571945        -1.774647        -3.853740
 C         2.413442        -0.372395        -3.238496
 C         2.247892         0.888888        -3.958390
 C         1.186708         0.434278        -3.023331
 O         0.909561         0.723650        -1.625992
 C         2.230920         0.832484        -1.044966
 C         3.165338        -0.149602        -1.825169
 C         2.066623         0.423989         0.528802
 O         2.883070         0.398800         1.359852
 H         3.579188        -1.946043        -4.103280
 H         2.346922        -2.537884        -3.206636
 H         2.080081        -1.909414        -4.858063
 H         3.042083         1.719317        -3.841484
 H         2.072052         0.870644        -5.009205
 H         0.209327         0.158797        -3.533821
 H         2.634252         1.872529        -1.132567
 H         4.171080         0.286406        -1.716307
 H         3.212186        -1.065929        -1.213573
 H         0.998346        -0.066070         0.523923
