19
Iteration:  2024charge 0 multiplicity 1
 C         2.466069        -1.798909        -3.836015
 C         2.461555        -0.422461        -3.139257
 C         2.067770         0.864692        -3.991642
 C         1.166642         0.263077        -2.899890
 O         1.154909         1.070477        -1.685867
 C         2.365267         0.758113        -0.925449
 C         3.384114        -0.020877        -1.954958
 C         2.053598         0.042766         0.429814
 O         2.589154         0.536359         1.349184
 H         3.484683        -1.964364        -4.347366
 H         2.097963        -2.491432        -3.116528
 H         1.799606        -1.793870        -4.795171
 H         2.674288         1.799217        -3.999365
 H         1.767582         0.604832        -4.993958
 H         0.187929        -0.154898        -3.090282
 H         2.745762         1.832203        -0.722379
 H         4.236947         0.647619        -2.164365
 H         3.885252        -0.909367        -1.470537
 H         1.257605        -0.767372         0.562192
