19
Iteration:  1218charge 0 multiplicity 1
 C         2.564147        -1.657768        -3.971491
 C         2.424694        -0.346387        -3.170500
 C         2.326499         1.005204        -3.809962
 C         1.211160         0.391379        -3.028999
 O         0.901888         0.761180        -1.615056
 C         2.212262         0.702077        -1.044625
 C         2.992342        -0.484007        -1.717766
 C         2.181110         0.257187         0.368569
 O         2.898551         0.744010         1.304142
 H         3.525139        -1.756631        -4.375911
 H         2.264149        -2.479906        -3.267327
 H         1.824801        -1.699290        -4.890087
 H         2.919983         1.820445        -3.403717
 H         2.210983         0.977770        -4.900176
 H         0.226423        -0.047482        -3.517017
 H         2.829559         1.675503        -1.176176
 H         4.068705        -0.471702        -1.671944
 H         2.612171        -1.334888        -1.272480
 H         1.390000        -0.427978         0.611737
