19
Iteration:  3592
 C         2.598803        -1.628063        -4.005185
 C         2.497418        -0.432327        -3.075652
 C         2.223781         0.919863        -3.779788
 C         1.153506         0.284848        -2.996004
 O         0.919359         0.768011        -1.751628
 C         2.187126         0.803516        -1.067376
 C         3.134003        -0.285366        -1.681919
 C         2.010393         0.466376         0.450862
 O         2.992225         0.477620         1.230382
 H         3.523273        -1.920477        -4.514299
 H         2.212897        -2.566689        -3.555414
 H         1.837085        -1.358031        -4.838661
 H         2.527080         1.883377        -3.189648
 H         2.288481         0.922910        -4.879650
 H         0.361775        -0.261953        -3.543831
 H         2.578474         1.817450        -1.007888
 H         4.214601        -0.146696        -1.424155
 H         2.753038        -1.072495        -0.988069
 H         1.088182        -0.033533         0.799086
