19
Iteration:  1160
 C         2.481933        -1.734729        -3.966645
 C         2.430614        -0.423517        -3.207638
 C         2.319722         0.952193        -3.879399
 C         1.158689         0.441650        -2.989349
 O         0.987810         0.667009        -1.627350
 C         2.207243         0.778270        -1.025197
 C         3.111679        -0.239467        -1.803736
 C         2.083719         0.381338         0.436296
 O         2.888964         0.584124         1.394867
 H         3.376348        -2.424875        -3.683253
 H         1.621699        -2.392979        -3.760977
 H         2.424567        -1.455026        -5.047892
 H         3.041794         1.789560        -3.610324
 H         2.059185         0.926594        -4.954263
 H         0.314889         0.180134        -3.489682
 H         2.715410         1.769886        -1.136128
 H         4.170521         0.066435        -1.972051
 H         3.103714        -1.263999        -1.337494
 H         1.245506        -0.339618         0.609612
