19
Iteration:  3343charge 0 multiplicity 1
 C         2.773295        -1.769651        -3.567807
 C         2.367008        -0.423886        -3.042436
 C         2.051552         0.751655        -4.072935
 C         1.100681         0.383140        -2.948664
 O         1.036667         0.927270        -1.617762
 C         2.327804         1.054715        -1.024590
 C         3.216203         0.175984        -1.908565
 C         2.081337         0.529748         0.416987
 O         2.729731        -0.184142         1.115078
 H         3.864101        -1.931591        -3.772627
 H         2.371545        -2.390698        -2.795578
 H         2.322450        -2.062929        -4.561535
 H         2.622261         1.617703        -4.057672
 H         1.732742         0.344024        -5.063140
 H         0.117429        -0.040909        -3.223250
 H         2.575565         2.111733        -1.017558
 H         4.142678         0.696307        -2.252729
 H         3.553799        -0.723306        -1.411368
 H         1.042161         0.793755         0.634276
