19
Iteration:  2429
 C         2.578451        -1.644855        -3.979314
 C         2.493283        -0.440590        -3.041356
 C         2.195570         0.945674        -3.808102
 C         1.076483         0.121803        -2.981877
 O         0.991297         0.763004        -1.666917
 C         2.293701         0.898239        -1.091853
 C         3.206788        -0.316760        -1.634156
 C         2.086029         0.882241         0.419516
 O         2.772606         0.155801         1.136245
 H         3.612173        -2.094606        -4.248154
 H         2.149953        -2.535892        -3.645140
 H         2.058987        -1.263562        -4.832627
 H         2.373884         1.886290        -3.234292
 H         2.471423         0.886082        -4.797637
 H         0.308845        -0.426588        -3.468489
 H         2.725996         1.827379        -1.507888
 H         4.219960        -0.018259        -1.738758
 H         2.912690        -1.117389        -0.890844
 H         1.402363         1.531987         0.919084
