19
Iteration:  4312charge 0 multiplicity 1
 C         2.434365        -1.724655        -4.003087
 C         2.359770        -0.425803        -3.103820
 C         2.199210         0.747509        -3.898329
 C         1.120867         0.381674        -2.988637
 O         1.175646         1.034282        -1.716499
 C         2.420294         0.766943        -0.983469
 C         3.229117        -0.239946        -1.886982
 C         2.157764         0.183321         0.477367
 O         2.608672         0.606433         1.474456
 H         3.401056        -1.709769        -4.451664
 H         2.153856        -2.697579        -3.522021
 H         1.760173        -1.681750        -4.924303
 H         2.827528         1.564456        -3.596766
 H         2.041316         0.794125        -4.914365
 H         0.067829         0.098741        -3.239470
 H         2.984924         1.671068        -1.028580
 H         4.265555         0.049137        -2.058412
 H         3.124468        -1.218065        -1.317838
 H         1.391787        -0.637037         0.242312
