19
Iteration:  3661charge 0 multiplicity 1
 C         2.644077        -1.631445        -4.110149
 C         2.460905        -0.376692        -3.244699
 C         2.217041         1.056908        -3.813333
 C         1.144500         0.340617        -3.022044
 O         0.971080         0.656030        -1.619419
 C         2.301838         0.583337        -1.049137
 C         2.982133        -0.470088        -1.795757
 C         2.125610         0.425518         0.576258
 O         2.868393         0.799712         1.377738
 H         3.783640        -1.885839        -4.138607
 H         2.252701        -2.474785        -3.518838
 H         2.206592        -1.636796        -5.123198
 H         2.716230         1.775319        -3.225776
 H         2.117302         1.199073        -4.911945
 H         0.213399        -0.027763        -3.478882
 H         2.870188         1.536086        -1.179905
 H         4.036025        -0.823709        -1.584607
 H         2.378694        -1.373955        -1.498702
 H         1.107829         0.032517         0.700395
