19
Iteration:  1469
 C         2.472594        -1.708656        -3.898483
 C         2.443917        -0.362807        -3.166216
 C         2.005826         0.780883        -4.106257
 C         1.163821         0.274020        -2.931970
 O         1.197866         0.989832        -1.677458
 C         2.482051         0.827171        -0.961899
 C         3.402599        -0.064852        -1.940821
 C         1.980885         0.327984         0.466633
 O         2.577741         0.356242         1.545861
 H         3.322181        -1.808045        -4.529365
 H         2.459995        -2.571831        -3.141422
 H         1.590119        -1.906392        -4.658501
 H         2.457287         1.641573        -3.983504
 H         1.648645         0.298397        -5.043551
 H         0.280166        -0.263189        -3.059926
 H         2.852136         1.859547        -0.834461
 H         4.295490         0.474656        -2.175211
 H         3.853101        -1.070525        -1.549680
 H         1.036528        -0.328069         0.223260
