19
Iteration:  1383charge 0 multiplicity 1
 C         2.587701        -1.739066        -3.676216
 C         2.456216        -0.393824        -3.054067
 C         2.287117         0.918317        -3.970389
 C         1.181197         0.356705        -3.046834
 O         0.885267         0.928376        -1.751956
 C         2.144702         0.980205        -1.034755
 C         3.044505        -0.168456        -1.627935
 C         2.103650         0.328517         0.382988
 O         3.023545         0.213886         1.153983
 H         3.557272        -2.022740        -3.802332
 H         1.988288        -2.526212        -3.127401
 H         2.088390        -1.644717        -4.687520
 H         2.654791         1.882457        -3.758355
 H         2.182365         0.828696        -5.119849
 H         0.317397        -0.110121        -3.445794
 H         2.532277         1.961504        -1.095135
 H         4.080257         0.127156        -1.755618
 H         2.881389        -1.156595        -1.149512
 H         1.145756        -0.264470         0.493385
