19
Iteration:    63
 C         2.740449        -1.723742        -3.911030
 C         2.466080        -0.385456        -3.090357
 C         2.308293         0.931164        -3.913578
 C         1.140148         0.395910        -3.143409
 O         0.817692         0.911053        -1.773856
 C         2.114596         0.762110        -0.931463
 C         3.060399        -0.344621        -1.593464
 C         1.993303         0.430331         0.567077
 O         3.030937         0.391084         1.120223
 H         2.259206        -2.601945        -3.242352
 H         2.285034        -1.700171        -4.914622
 H         3.780076        -2.142506        -3.945506
 H         2.581854         1.935125        -3.513988
 H         2.297850         1.010814        -4.996119
 H         0.263086        -0.133027        -3.542478
 H         2.688621         1.747448        -0.872425
 H         4.117352        -0.095864        -1.614606
 H         2.833176        -1.272312        -1.061151
 H         1.060606         0.371904         1.007733
