19
Iteration:  1794
 C         2.815036        -1.657080        -4.001995
 C         2.459182        -0.441650        -3.089515
 C         2.219659         0.940507        -3.737583
 C         1.128815         0.238922        -2.931907
 O         0.927418         0.907972        -1.719377
 C         2.212398         0.849931        -1.016666
 C         2.953599        -0.487419        -1.648964
 C         2.001596         0.528236         0.443493
 O         2.989997         0.442209         1.088736
 H         3.854981        -1.657264        -4.557007
 H         2.417247        -2.615531        -3.716987
 H         2.100526        -1.486935        -4.951784
 H         2.359469         1.967075        -3.169973
 H         2.165463         0.911776        -4.813059
 H         0.138030        -0.153052        -3.371688
 H         2.835135         1.688543        -1.120486
 H         4.047831        -0.400364        -1.394203
 H         2.621642        -1.346087        -1.032819
 H         0.927693         0.571738         0.673283
