19
Iteration:  4567
 C         2.615998        -1.776086        -3.864659
 C         2.440636        -0.414892        -3.190932
 C         2.351922         0.980080        -3.902931
 C         1.170517         0.486532        -3.025739
 O         0.911628         0.771561        -1.662044
 C         2.171952         0.774496        -1.016317
 C         2.934557        -0.369844        -1.717771
 C         2.016447         0.558228         0.451337
 O         3.032495         0.405009         1.250177
 H         3.661862        -2.195355        -4.095194
 H         1.974914        -2.591162        -3.347784
 H         2.237830        -1.719714        -4.897707
 H         3.076768         1.666691        -3.294369
 H         2.521229         1.014614        -5.041249
 H         0.215338         0.361667        -3.604537
 H         2.744644         1.692341        -1.089285
 H         4.109253        -0.278159        -1.601087
 H         2.594239        -1.370612        -1.274172
 H         0.959669         0.473008         0.700643
