19
Iteration:  4147
 C         2.547873        -1.746521        -3.954853
 C         2.515067        -0.397944        -3.137296
 C         2.239124         0.987614        -3.826468
 C         1.184792         0.449852        -3.015448
 O         1.000792         0.731929        -1.660777
 C         2.283563         0.895804        -1.031951
 C         2.971653        -0.453317        -1.753840
 C         2.078680         0.394965         0.401665
 O         2.901396         0.564049         1.354627
 H         3.518668        -1.963506        -4.366201
 H         2.053309        -2.665909        -3.477671
 H         2.012960        -1.493002        -4.943290
 H         2.684817         1.897267        -3.657247
 H         2.156810         0.981142        -4.942301
 H         0.268935         0.167721        -3.509496
 H         2.988867         1.718469        -1.193397
 H         4.026074        -0.536089        -1.694809
 H         2.464692        -1.396363        -1.386080
 H         1.171553        -0.264163         0.557507
