19
Iteration:  2331charge 0 multiplicity 1
 C         2.586634        -1.700233        -3.760118
 C         2.522107        -0.447050        -3.053643
 C         2.171027         0.764432        -3.963416
 C         1.106217         0.328833        -2.933153
 O         1.075140         0.999482        -1.748589
 C         2.245827         0.973212        -0.992030
 C         3.162926        -0.052943        -1.691908
 C         1.929667         0.364898         0.407223
 O         2.860683         0.218753         1.094959
 H         3.664084        -1.911049        -4.234679
 H         2.348035        -2.637195        -3.230653
 H         1.807671        -1.749746        -4.512953
 H         2.840367         1.584415        -3.878634
 H         1.872028         0.442470        -4.936747
 H         0.192073        -0.158028        -3.271956
 H         2.846046         1.884067        -0.849390
 H         4.180953         0.317705        -1.710436
 H         3.261913        -1.111496        -1.121455
 H         0.947671        -0.181428         0.703663
