19
Iteration:  3693charge 0 multiplicity 1
 C         2.532802        -1.529145        -4.154712
 C         2.398219        -0.429075        -3.057498
 C         2.277271         0.933841        -3.742299
 C         1.170110         0.320542        -2.935333
 O         0.987609         0.796975        -1.659696
 C         2.236175         0.597198        -1.074372
 C         3.092238        -0.486729        -1.687164
 C         2.098243         0.246616         0.405427
 O         2.830324         0.872267         1.272325
 H         3.612805        -1.387766        -4.501856
 H         2.475533        -2.542861        -3.765338
 H         2.053070        -1.555286        -5.143045
 H         2.807290         1.698364        -3.212306
 H         2.348115         0.901451        -4.838475
 H         0.322463        -0.060545        -3.473919
 H         2.909118         1.418537        -1.116380
 H         4.199257        -0.290196        -1.635809
 H         2.734016        -1.386064        -1.183652
 H         1.409425        -0.588600         0.686260
