19
Iteration:    99charge 0 multiplicity 1
 C         2.562972        -1.617701        -4.001101
 C         2.455020        -0.421050        -3.119667
 C         2.389387         0.954356        -3.817426
 C         1.145077         0.336923        -3.064533
 O         0.892982         0.677408        -1.646383
 C         2.305357         0.782925        -1.024777
 C         3.098330        -0.384175        -1.712050
 C         2.041691         0.477591         0.429600
 O         2.847671         0.556318         1.295830
 H         2.072805        -2.472085        -3.442239
 H         2.011026        -1.581261        -4.866290
 H         3.584704        -1.759185        -4.249430
 H         2.759817         1.819702        -3.319240
 H         2.324773         0.944664        -4.910187
 H         0.257232        -0.018377        -3.592967
 H         2.605518         1.868805        -1.216082
 H         4.159665        -0.304096        -1.738628
 H         2.989674        -1.302636        -1.204355
 H         1.035429         0.257062         0.533137
