19
Iteration:  3423
 C         2.777122        -1.816875        -3.641752
 C         2.447222        -0.389616        -3.157220
 C         2.119194         0.742530        -3.989065
 C         1.079275         0.372194        -2.899906
 O         0.998736         1.042532        -1.616918
 C         2.273516         0.977319        -1.025568
 C         3.145018         0.062289        -1.878622
 C         1.978364         0.431384         0.362435
 O         2.833751        -0.021230         1.156794
 H         3.775403        -1.845460        -4.144272
 H         2.914396        -2.638254        -2.897488
 H         2.095898        -2.201443        -4.358635
 H         2.715203         1.662083        -4.031093
 H         1.683409         0.485633        -4.921049
 H         0.103333        -0.005096        -3.165969
 H         2.589132         2.007735        -1.023035
 H         4.065166         0.677909        -2.012468
 H         3.519763        -0.883079        -1.416910
 H         1.003752         0.581187         0.747543
