19
Iteration:  4021
 C         2.511571        -1.710045        -3.929559
 C         2.454525        -0.461833        -3.186153
 C         2.332918         0.916060        -3.791011
 C         1.136638         0.318492        -2.950736
 O         0.960574         0.867505        -1.704907
 C         2.185082         0.769217        -1.009000
 C         3.114587        -0.279451        -1.799595
 C         1.992680         0.549604         0.492537
 O         2.954054         0.342772         1.211964
 H         3.582285        -2.071604        -3.842431
 H         1.910283        -2.502123        -3.501884
 H         2.216718        -1.668570        -4.971118
 H         2.992987         1.664437        -3.342816
 H         2.133250         0.970416        -4.909685
 H         0.245091         0.170725        -3.488810
 H         2.720953         1.773532        -1.058825
 H         4.018552         0.385606        -1.901628
 H         3.537825        -1.083397        -1.225351
 H         0.896496         0.505411         0.870656
