19
Iteration:  4430charge 0 multiplicity 1
 C         2.525504        -1.662295        -3.894473
 C         2.427440        -0.408057        -3.079439
 C         2.182703         0.863573        -3.873465
 C         1.157757         0.299069        -3.017000
 O         1.076669         0.993315        -1.708077
 C         2.395569         0.835737        -1.060859
 C         3.103581        -0.395333        -1.734773
 C         2.084237         0.322915         0.348600
 O         2.774412         0.500176         1.361116
 H         3.440622        -1.768611        -4.520863
 H         2.281179        -2.589738        -3.333794
 H         1.716189        -1.496022        -4.682109
 H         2.836821         1.674114        -3.637842
 H         2.084328         0.770590        -4.954954
 H         0.101156         0.170297        -3.448653
 H         2.910730         1.798878        -0.983464
 H         4.174349        -0.289350        -1.698746
 H         2.765425        -1.346673        -1.266402
 H         1.179356        -0.338060         0.480852
