19
Iteration:  1677
 C         2.593050        -1.766017        -3.827646
 C         2.477339        -0.365901        -3.141125
 C         1.983954         0.844222        -4.030734
 C         1.187971         0.326927        -2.928495
 O         1.111835         1.035709        -1.695506
 C         2.393646         0.835277        -0.970834
 C         3.203160        -0.098192        -1.850080
 C         2.087890         0.080262         0.361102
 O         2.662447         0.491840         1.389867
 H         3.609596        -1.903740        -4.098958
 H         2.257016        -2.573986        -3.086317
 H         1.956174        -1.929297        -4.780243
 H         2.488231         1.905685        -3.945193
 H         1.744205         0.598837        -5.028671
 H         0.139031        -0.099051        -3.133991
 H         2.906412         1.865616        -0.795114
 H         4.256164         0.127912        -1.892009
 H         3.251472        -1.146275        -1.463831
 H         1.502486        -0.812436         0.432846
