19
Iteration:  4646charge 0 multiplicity 1
 C         2.510978        -1.746734        -3.937332
 C         2.490963        -0.392526        -3.200704
 C         2.219945         0.870347        -3.891061
 C         1.131764         0.369760        -2.994028
 O         1.058927         0.926227        -1.632703
 C         2.454845         0.798702        -1.046102
 C         3.092369        -0.365126        -1.745650
 C         2.017457         0.445796         0.378096
 O         2.760284         0.465945         1.385859
 H         3.498732        -1.932651        -4.510863
 H         2.389231        -2.629342        -3.314104
 H         1.691496        -1.714721        -4.686309
 H         2.756979         1.714428        -3.558167
 H         2.001335         1.045961        -4.948606
 H         0.241919        -0.047404        -3.434897
 H         3.009901         1.711865        -1.070142
 H         4.202252        -0.257821        -1.678575
 H         2.756208        -1.312780        -1.266637
 H         0.953097         0.131310         0.327082
