19
Iteration:  1431charge 0 multiplicity 1
 C         2.647364        -1.802738        -3.800784
 C         2.402419        -0.460563        -3.166473
 C         2.027319         0.893721        -3.926113
 C         1.118846         0.362405        -2.925093
 O         1.125859         1.074230        -1.727134
 C         2.291216         0.815322        -0.965092
 C         3.292686        -0.178711        -1.863806
 C         1.922557         0.322873         0.414568
 O         2.786867         0.312036         1.280985
 H         3.723923        -1.699512        -4.224327
 H         2.774650        -2.506392        -3.006733
 H         1.945958        -2.175708        -4.471516
 H         2.737124         1.849166        -3.843792
 H         1.807668         0.803397        -4.978553
 H         0.082642        -0.023530        -3.210623
 H         2.917386         1.753872        -0.851256
 H         4.207121         0.389408        -2.096803
 H         3.440015        -1.083448        -1.394815
 H         0.953105        -0.172088         0.670088
