19
Iteration:  1450
 C         2.611835        -1.738402        -3.829376
 C         2.435949        -0.385069        -3.162050
 C         2.073036         0.792674        -4.046044
 C         1.085983         0.315175        -2.894068
 O         1.194570         1.054131        -1.700139
 C         2.396940         0.685562        -0.991889
 C         3.252045        -0.081641        -1.986264
 C         1.976363         0.275314         0.447864
 O         2.674077         0.373056         1.458531
 H         3.471888        -1.789127        -4.464046
 H         2.667102        -2.619993        -3.120278
 H         1.736373        -1.947097        -4.458533
 H         2.505314         1.805770        -3.698732
 H         1.742441         0.614995        -5.128470
 H         0.109313        -0.034838        -3.147926
 H         2.902188         1.596339        -0.748815
 H         4.089805         0.617583        -2.306058
 H         3.634596        -1.025910        -1.412102
 H         0.884247         0.324810         0.559061
