19
Iteration:  1797charge 0 multiplicity 1
 C         2.809379        -1.634811        -4.029985
 C         2.449131        -0.461131        -3.100605
 C         2.253581         0.932899        -3.716029
 C         1.119507         0.230841        -2.920474
 O         0.940486         0.876555        -1.704238
 C         2.223602         0.858721        -1.028292
 C         2.919864        -0.466839        -1.647999
 C         2.030583         0.542936         0.442641
 O         2.967493         0.442452         1.079127
 H         3.761795        -1.561411        -4.416563
 H         2.416570        -2.569913        -3.779004
 H         2.136987        -1.419979        -4.908446
 H         2.359863         1.813773        -3.173397
 H         2.222494         0.790336        -4.871138
 H         0.220132        -0.147542        -3.354059
 H         2.843214         1.755100        -1.185373
 H         3.956777        -0.343676        -1.394632
 H         2.563516        -1.269244        -0.986482
 H         0.953386         0.555904         0.736390
