19
Iteration:  2848
 C         2.597984        -1.555641        -4.178947
 C         2.445756        -0.487859        -3.101831
 C         2.299998         0.851582        -3.632480
 C         1.061985         0.289877        -2.970747
 O         0.978699         0.867314        -1.665035
 C         2.243094         0.746750        -1.066610
 C         3.068951        -0.473191        -1.745008
 C         2.108425         0.308956         0.419301
 O         2.841353         0.765367         1.318545
 H         3.579360        -1.453883        -4.834937
 H         2.534995        -2.590584        -3.815012
 H         1.736522        -1.384060        -4.862489
 H         2.757558         1.661159        -3.136332
 H         2.461275         0.947301        -4.742247
 H         0.224110        -0.286191        -3.402499
 H         2.873452         1.672556        -1.247849
 H         4.210548        -0.216689        -1.765176
 H         2.850043        -1.394909        -1.183199
 H         1.357749        -0.491740         0.518185
