19
Iteration:  4866charge 0 multiplicity 1
 C         2.432846        -1.786349        -3.819597
 C         2.366559        -0.421959        -3.204038
 C         2.297212         0.923753        -3.949795
 C         1.167046         0.396238        -2.935009
 O         1.123109         0.996058        -1.685490
 C         2.345465         0.774476        -1.024516
 C         3.134975        -0.269448        -1.853850
 C         2.137944         0.184268         0.394369
 O         2.667165         0.572706         1.389273
 H         3.538971        -2.017605        -4.051849
 H         2.096825        -2.560659        -3.096872
 H         1.970007        -2.086484        -4.825729
 H         2.951284         1.613800        -3.493639
 H         2.175388         1.071052        -5.023102
 H         0.090305         0.199123        -3.307206
 H         2.855649         1.672657        -0.763707
 H         4.104389         0.100717        -2.078417
 H         3.326783        -1.319689        -1.561586
 H         1.283130        -0.631326         0.316195
