19
Iteration:  1625charge 0 multiplicity 1
 C         2.604758        -1.715330        -3.849940
 C         2.352649        -0.435127        -3.114938
 C         2.006025         0.782102        -3.943213
 C         1.072997         0.298140        -2.877593
 O         1.215211         1.080824        -1.611844
 C         2.486998         0.803659        -0.999995
 C         3.320170        -0.130156        -1.948437
 C         2.137995         0.148180         0.296484
 O         2.477550         0.490297         1.352580
 H         3.474787        -1.700855        -4.577542
 H         2.798871        -2.596248        -3.095828
 H         1.799339        -2.018950        -4.539677
 H         2.588066         1.752698        -3.822168
 H         1.781028         0.831901        -4.967513
 H        -0.024828         0.044672        -2.840512
 H         2.933031         1.761818        -0.759945
 H         4.293042         0.347294        -2.186724
 H         3.700038        -1.055087        -1.426905
 H         1.411008        -0.773102         0.282874
