19
Iteration:  2334charge 0 multiplicity 1
 C         2.601996        -1.716968        -3.780176
 C         2.512971        -0.411251        -3.054264
 C         2.166732         0.771059        -3.966175
 C         1.104961         0.342465        -2.958914
 O         1.058025         0.995049        -1.756053
 C         2.272283         0.952918        -0.985461
 C         3.158559        -0.064623        -1.671934
 C         1.889198         0.382424         0.416795
 O         2.893646         0.216362         1.112563
 H         3.650023        -1.974293        -4.156489
 H         2.411792        -2.709011        -3.092970
 H         1.792026        -1.808866        -4.509368
 H         2.824199         1.680030        -3.849378
 H         1.811060         0.428474        -4.864386
 H         0.253318        -0.176255        -3.310023
 H         2.854482         1.874675        -0.868313
 H         4.203494         0.307202        -1.834900
 H         3.201461        -1.190325        -1.246536
 H         0.918414        -0.140002         0.684057
