19
Iteration:  2539charge 0 multiplicity 1
 C         2.500578        -1.696948        -3.834675
 C         2.491619        -0.347123        -3.038801
 C         2.190400         0.826063        -3.885440
 C         1.212487         0.269354        -2.931740
 O         1.042522         0.837285        -1.746462
 C         2.274479         0.936477        -1.037147
 C         3.159948        -0.134540        -1.692318
 C         1.964204         0.509230         0.444502
 O         2.873081         0.241461         1.118071
 H         3.629953        -1.889415        -4.284764
 H         2.011483        -2.534448        -3.379524
 H         1.705149        -1.500311        -4.524140
 H         2.692664         1.783115        -3.741864
 H         2.182553         0.480079        -4.975902
 H         0.395238        -0.352436        -3.349616
 H         2.696598         1.968881        -0.994018
 H         4.208534         0.057246        -1.742750
 H         3.084764        -1.158186        -1.188881
 H         0.848948         0.273999         0.601436
