19
Iteration:  2546
 C         2.470574        -1.663759        -3.777234
 C         2.529378        -0.386342        -3.104272
 C         2.243052         0.831597        -3.952534
 C         1.178068         0.265685        -3.026059
 O         1.012319         0.837503        -1.676614
 C         2.274137         0.936791        -0.993984
 C         3.167022        -0.136770        -1.716399
 C         1.935374         0.512314         0.400842
 O         2.904026         0.232685         1.161376
 H         3.423814        -1.933684        -4.075646
 H         2.083562        -2.570698        -3.253484
 H         1.792149        -1.496920        -4.672092
 H         2.767851         1.816475        -3.625978
 H         2.149723         0.449565        -4.942489
 H         0.281091        -0.290149        -3.261851
 H         2.635676         1.967870        -0.906320
 H         4.199835         0.230440        -1.803786
 H         3.129993        -1.002077        -1.112743
 H         0.934092         0.129239         0.590213
