19
Iteration:  3414charge 0 multiplicity 1
 C         2.725506        -1.778704        -3.624011
 C         2.563157        -0.406598        -3.082900
 C         2.053561         0.739184        -3.974590
 C         1.125752         0.377019        -2.894692
 O         0.904615         1.058929        -1.682169
 C         2.245973         0.973939        -1.028357
 C         3.176528         0.033777        -1.815024
 C         2.049434         0.469392         0.384217
 O         2.841822        -0.053662         1.075429
 H         3.551941        -1.648021        -4.251283
 H         2.815750        -2.482744        -2.790496
 H         2.082936        -2.094404        -4.405666
 H         2.562308         1.688118        -3.982045
 H         1.831087         0.353394        -5.045422
 H         0.270063        -0.149323        -3.256731
 H         2.789077         1.927202        -0.870466
 H         4.149224         0.458700        -2.084937
 H         3.424507        -0.798032        -1.075623
 H         0.922171         0.497850         0.550807
