19
Iteration:  4243
 C         2.435647        -1.695551        -3.908233
 C         2.440565        -0.389490        -3.173234
 C         2.148619         0.933623        -3.948118
 C         1.111019         0.374399        -3.038202
 O         1.150254         0.894354        -1.653455
 C         2.501260         0.716274        -1.093336
 C         3.137807        -0.384730        -1.779025
 C         2.222058         0.323446         0.351008
 O         2.605848         0.589125         1.547905
 H         3.394561        -1.782253        -4.506563
 H         2.228693        -2.573460        -3.308856
 H         1.798247        -1.745207        -4.785101
 H         2.632963         1.857059        -3.689306
 H         2.019142         0.964245        -5.099107
 H         0.182442        -0.067942        -3.279116
 H         2.912788         1.729269        -1.131612
 H         4.163423        -0.057528        -1.645112
 H         2.839971        -1.354906        -1.268649
 H         1.393425        -0.491387         0.144923
