19
Iteration:   997charge 0 multiplicity 1
 C         2.449449        -1.780693        -3.777904
 C         2.418417        -0.369661        -3.093512
 C         2.380929         0.924423        -3.941952
 C         1.246703         0.361856        -3.071911
 O         0.940684         0.797034        -1.714978
 C         2.176570         0.890358        -0.989892
 C         3.130967        -0.052170        -1.787943
 C         2.044571         0.399619         0.472607
 O         2.930421         0.248317         1.230195
 H         2.457373        -1.618978        -4.853435
 H         3.302559        -2.455873        -3.694501
 H         1.388688        -2.238452        -3.381710
 H         3.236176         1.664332        -3.615792
 H         2.048554         0.641377        -4.996535
 H         0.288061         0.119744        -3.538799
 H         2.498457         1.938565        -1.015440
 H         4.208949         0.293479        -1.809312
 H         3.183055        -0.905522        -1.153137
 H         0.908205         0.086253         0.759725
