19
Iteration:  4617
 C         2.548188        -1.644253        -3.940783
 C         2.409653        -0.432865        -3.064654
 C         2.248229         0.882090        -3.816074
 C         1.108881         0.322869        -3.032793
 O         1.050532         1.017502        -1.751597
 C         2.364820         0.720043        -1.038023
 C         3.102065        -0.463110        -1.645640
 C         1.985121         0.449313         0.459248
 O         2.875081         0.457367         1.213742
 H         3.528835        -1.604992        -4.324961
 H         2.508634        -2.586972        -3.433388
 H         1.983768        -1.708449        -4.877591
 H         2.556117         1.892742        -3.532851
 H         2.134627         0.847056        -4.851926
 H         0.241867        -0.071663        -3.474776
 H         2.928733         1.691486        -0.927067
 H         4.128172        -0.336611        -1.671932
 H         2.775371        -1.388061        -1.181849
 H         0.829759         0.402961         0.487736
