19
Iteration:  4966
 C         2.570235        -1.650855        -3.917147
 C         2.388445        -0.460791        -3.173989
 C         2.282256         0.848614        -3.825631
 C         1.114696         0.433992        -2.965315
 O         1.085394         0.968192        -1.680197
 C         2.267049         0.681799        -1.021529
 C         3.113883        -0.466730        -1.814539
 C         1.949032         0.406562         0.430966
 O         2.885247         0.542352         1.278433
 H         3.579090        -1.773001        -4.455833
 H         2.531268        -2.544225        -3.144781
 H         1.783991        -1.765497        -4.732431
 H         2.783914         1.795576        -3.366592
 H         2.257365         0.828764        -4.918472
 H         0.155438         0.291499        -3.468624
 H         2.887403         1.626132        -0.842463
 H         4.123060        -0.174716        -1.815246
 H         2.867453        -1.493531        -1.350477
 H         0.901652         0.274679         0.630195
