19
Iteration:  4179charge 0 multiplicity 1
 C         2.415088        -1.710054        -3.863961
 C         2.427407        -0.385552        -3.159780
 C         2.346231         1.012185        -3.852969
 C         1.184647         0.414653        -3.028482
 O         1.022906         0.773067        -1.685942
 C         2.239729         0.700196        -0.978147
 C         3.087466        -0.361552        -1.886995
 C         2.108694         0.254550         0.486548
 O         2.831077         0.662176         1.314550
 H         3.461401        -2.075573        -3.964391
 H         1.839636        -2.492306        -3.284399
 H         2.108101        -1.447566        -4.931541
 H         2.885557         1.747722        -3.351893
 H         2.245839         1.120731        -4.985947
 H         0.337888         0.071173        -3.577660
 H         2.838093         1.624451        -1.103219
 H         4.078024         0.028078        -1.979217
 H         3.120095        -1.400085        -1.426535
 H         1.334143        -0.486618         0.617479
