19
Iteration:  1723charge 0 multiplicity 1
 C         2.499989        -1.786068        -3.847347
 C         2.496050        -0.409417        -3.141821
 C         2.240126         0.940941        -3.854426
 C         1.192288         0.287723        -2.986679
 O         0.990430         0.792931        -1.654992
 C         2.252588         0.853986        -1.007211
 C         3.221232        -0.085667        -1.872431
 C         2.064053         0.332130         0.395243
 O         2.788445         0.429407         1.305736
 H         3.503504        -2.183984        -4.230581
 H         1.832622        -2.550645        -3.232517
 H         1.904466        -1.665552        -4.754723
 H         2.738960         1.801787        -3.538288
 H         1.854318         0.943311        -4.934709
 H         0.276063        -0.025584        -3.433307
 H         2.614225         1.927648        -0.947153
 H         4.162658         0.390961        -2.165477
 H         3.592938        -0.906961        -1.191691
 H         1.089648        -0.154338         0.457784
