19
Iteration:  4534
 C         2.465391        -1.690266        -3.858438
 C         2.492367        -0.402839        -3.057121
 C         2.312470         1.040288        -3.774502
 C         1.204884         0.355733        -3.012760
 O         0.900688         0.789838        -1.733522
 C         2.280370         0.703373        -1.049038
 C         3.111843        -0.428359        -1.680246
 C         1.988775         0.558864         0.375296
 O         2.955480         0.444959         1.118793
 H         3.478570        -2.190319        -4.012758
 H         1.750693        -2.484154        -3.451558
 H         2.032936        -1.379350        -4.802586
 H         2.861800         1.605229        -2.941929
 H         2.501758         1.198195        -4.863136
 H         0.283290         0.100511        -3.556741
 H         2.635965         1.710073        -1.117017
 H         4.296281        -0.358503        -1.619852
 H         2.896297        -1.443016        -1.224633
 H         0.918367         0.582486         0.760782
