19
Iteration:  4722
 C         2.394120        -1.735911        -3.806950
 C         2.429706        -0.394860        -3.147398
 C         2.280846         0.877454        -3.881907
 C         1.149691         0.396590        -2.983317
 O         1.090103         0.948152        -1.711125
 C         2.395852         0.768373        -1.031680
 C         3.179530        -0.234119        -1.781159
 C         2.151504         0.165087         0.260151
 O         2.669863         0.571855         1.356414
 H         3.477278        -2.139311        -3.768541
 H         1.777180        -2.305837        -3.059054
 H         1.769132        -1.735722        -4.744151
 H         2.622811         1.772171        -3.392582
 H         2.103071         0.972225        -4.909866
 H         0.282899         0.066613        -3.450178
 H         2.818755         1.738511        -0.925899
 H         4.292391        -0.037030        -1.814653
 H         3.165984        -1.256141        -1.262818
 H         1.382236        -0.756087         0.129902
