19
Iteration:  2101charge 0 multiplicity 1
 C         2.475947        -1.784733        -3.804106
 C         2.433354        -0.459416        -3.067481
 C         2.073607         0.757131        -3.919733
 C         1.146252         0.321230        -2.804450
 O         1.111760         1.091308        -1.651167
 C         2.504316         0.892052        -1.027926
 C         3.389475         0.011939        -1.880049
 C         2.093968         0.104533         0.228400
 O         2.511218         0.414143         1.260464
 H         3.572392        -1.848834        -4.129044
 H         2.287437        -2.601196        -3.103838
 H         1.615241        -1.868962        -4.546068
 H         2.492763         1.780532        -3.742138
 H         1.783546         0.521406        -4.879451
 H         0.182095        -0.135299        -3.107629
 H         2.723252         1.976310        -0.853175
 H         4.319808         0.474375        -2.205648
 H         3.704257        -0.916014        -1.303547
 H         1.568727        -0.833327         0.089144
