19
Iteration:   804
 C         2.557313        -1.713958        -4.034663
 C         2.438523        -0.451212        -3.131675
 C         2.408294         0.956725        -3.809615
 C         1.233909         0.484860        -3.112220
 O         1.010704         0.956872        -1.718317
 C         2.198583         0.615941        -0.964944
 C         2.946851        -0.465900        -1.714955
 C         2.069562         0.263729         0.474617
 O         2.829052         0.693145         1.320442
 H         2.537392        -2.736471        -3.513513
 H         1.570429        -1.916548        -4.576401
 H         3.449796        -1.630400        -4.649506
 H         2.878736         1.710250        -3.183504
 H         2.315795         1.135033        -4.929750
 H         0.234545         0.225941        -3.579234
 H         2.753424         1.602603        -0.970404
 H         4.004535        -0.281435        -1.554050
 H         2.790491        -1.414788        -1.274558
 H         1.417874        -0.622132         0.779190
