19
Iteration:  3467charge 0 multiplicity 1
 C         2.671470        -1.695042        -3.704305
 C         2.526662        -0.318732        -3.173854
 C         2.028648         0.829816        -4.025476
 C         1.109927         0.197813        -2.867401
 O         1.040213         0.991592        -1.713678
 C         2.294242         0.825386        -1.040106
 C         3.287053         0.055454        -1.899307
 C         2.018292         0.417593         0.385514
 O         2.768448         0.107569         1.316673
 H         3.625643        -2.233901        -4.021041
 H         2.151692        -2.304808        -2.824840
 H         2.023209        -1.891670        -4.527238
 H         2.328262         1.811783        -3.851354
 H         1.792221         0.585649        -5.113531
 H         0.187243        -0.310455        -3.099296
 H         2.690167         1.832715        -0.777310
 H         4.322573         0.347307        -2.147254
 H         3.466822        -0.902962        -1.300430
 H         0.866630         0.469295         0.571856
