19
Iteration:  3276charge 0 multiplicity 1
 C         2.641716        -1.656995        -3.650379
 C         2.550000        -0.268502        -2.996980
 C         2.006256         0.623654        -4.029671
 C         1.094229         0.178752        -2.831915
 O         1.077345         1.032496        -1.750224
 C         2.270926         1.068950        -0.987217
 C         3.322513         0.113561        -1.798520
 C         1.971626         0.571604         0.398332
 O         2.757580        -0.185359         0.987337
 H         3.425625        -1.774833        -4.413145
 H         2.662458        -2.460980        -2.972083
 H         1.901111        -1.954772        -4.424632
 H         2.339458         1.665610        -3.964074
 H         1.828277         0.087972        -4.971587
 H         0.317445        -0.561080        -2.881993
 H         2.649160         2.049799        -0.746004
 H         4.368868         0.357622        -1.989435
 H         3.485517        -0.676742        -1.098422
 H         1.001331         0.872752         1.071675
