19
Iteration:  4175charge 0 multiplicity 1
 C         2.411482        -1.699226        -3.866062
 C         2.441194        -0.364312        -3.196245
 C         2.355362         0.995552        -3.871538
 C         1.203289         0.395911        -2.997543
 O         0.995109         0.766377        -1.675116
 C         2.255638         0.699683        -1.038529
 C         3.045256        -0.357578        -1.831138
 C         2.116954         0.282330         0.469650
 O         2.840805         0.645606         1.340641
 H         3.490639        -2.047584        -3.999593
 H         1.857582        -2.403847        -3.281442
 H         2.146425        -1.573915        -4.884494
 H         2.937178         1.837576        -3.364645
 H         2.222722         1.237253        -4.971779
 H         0.307793        -0.029533        -3.565924
 H         2.951668         1.559290        -1.162327
 H         4.081484         0.063747        -1.930792
 H         2.989513        -1.387555        -1.473890
 H         1.313301        -0.529083         0.629006
