19
Iteration:   960
 C         2.620906        -1.698834        -3.841409
 C         2.407464        -0.419891        -3.061950
 C         2.218768         0.926986        -3.881023
 C         1.117253         0.304720        -2.944179
 O         1.061926         1.032002        -1.740923
 C         2.282328         0.767609        -1.036166
 C         3.123591        -0.293054        -1.775472
 C         1.984018         0.421642         0.424473
 O         2.846930         0.315056         1.222429
 H         1.779229        -1.841489        -4.621926
 H         3.692381        -1.803811        -4.189271
 H         2.517610        -2.534017        -3.183475
 H         2.781130         1.790291        -3.659636
 H         2.183302         0.816724        -4.951709
 H         0.181977        -0.043503        -3.434829
 H         2.863398         1.742481        -0.933716
 H         4.134523        -0.060610        -1.953384
 H         3.070519        -1.285133        -1.343941
 H         0.828277         0.298933         0.616965
