19
Iteration:  3680
 C         2.638913        -1.553777        -4.122758
 C         2.473193        -0.427558        -3.162437
 C         2.276877         1.010879        -3.712448
 C         1.131318         0.286826        -3.002549
 O         1.001126         0.761678        -1.655965
 C         2.272911         0.641413        -0.980798
 C         2.980509        -0.590491        -1.734453
 C         2.126902         0.362184         0.457070
 O         2.825123         0.828972         1.265406
 H         3.617576        -1.799944        -4.471776
 H         2.236160        -2.423045        -3.615528
 H         1.835812        -1.344989        -4.876955
 H         2.562891         1.979731        -3.409172
 H         2.101187         1.038189        -4.867082
 H         0.168459        -0.038115        -3.315021
 H         2.762588         1.586609        -1.106965
 H         4.044987        -0.397213        -1.689079
 H         2.882685        -1.601889        -1.345955
 H         1.387981        -0.453141         0.711635
