19
Iteration:  1642charge 0 multiplicity 1
 C         2.691744        -1.731674        -3.815643
 C         2.288244        -0.400396        -3.131484
 C         1.999479         0.764515        -3.999998
 C         1.101363         0.408087        -2.920407
 O         1.167739         1.067167        -1.672658
 C         2.504639         0.819033        -1.055087
 C         3.201576        -0.151543        -2.008176
 C         2.179191         0.130184         0.435601
 O         2.519624         0.450584         1.522193
 H         3.614461        -1.558491        -4.321964
 H         2.958391        -2.510208        -3.156179
 H         1.966851        -2.159858        -4.606738
 H         2.637394         1.693738        -3.902433
 H         1.647692         0.395305        -5.007786
 H         0.050010         0.178573        -3.172653
 H         3.115992         1.811573        -1.044031
 H         4.112712         0.274203        -2.435363
 H         3.359144        -1.057482        -1.430516
 H         1.560438        -0.659648         0.102618
