19
Iteration:  4867charge 0 multiplicity 1
 C         2.432814        -1.793303        -3.825460
 C         2.369707        -0.420965        -3.200556
 C         2.296100         0.932327        -3.945634
 C         1.171563         0.386203        -2.928357
 O         1.119138         1.002898        -1.691574
 C         2.345327         0.767866        -1.030464
 C         3.134904        -0.262332        -1.852330
 C         2.129456         0.170298         0.390545
 O         2.674062         0.579751         1.392699
 H         3.523742        -2.027114        -4.034404
 H         2.084364        -2.545677        -3.073946
 H         1.974997        -2.061003        -4.826241
 H         2.993588         1.608658        -3.480332
 H         2.182988         1.063929        -5.041544
 H         0.079208         0.206379        -3.286621
 H         2.844347         1.646082        -0.779562
 H         4.086608         0.112741        -2.082335
 H         3.320132        -1.315309        -1.580484
 H         1.282230        -0.618647         0.339597
