19
Iteration:   672charge 0 multiplicity 1
 C         2.544779        -1.802403        -3.776369
 C         2.472107        -0.430324        -3.114156
 C         2.454851         0.995115        -3.772385
 C         1.249457         0.446804        -3.065146
 O         0.838152         0.849785        -1.760923
 C         2.182293         0.912600        -1.046670
 C         2.918407        -0.280195        -1.678728
 C         2.052821         0.394969         0.391396
 O         2.977877         0.324509         1.157903
 H         1.877342        -2.557046        -3.183564
 H         2.284046        -1.640256        -4.903876
 H         3.509860        -2.331751        -3.663542
 H         3.142934         1.783869        -3.325483
 H         2.438552         0.950019        -4.852275
 H         0.426447         0.252653        -3.681284
 H         2.585606         1.964557        -1.163428
 H         4.004511        -0.052202        -1.595906
 H         2.757500        -1.198023        -1.140458
 H         1.044503        -0.059158         0.557065
