19
Iteration:   716
 C         2.488131        -1.649605        -4.048788
 C         2.462365        -0.447245        -3.158975
 C         2.309289         1.006208        -3.894363
 C         1.191372         0.378146        -3.016025
 O         1.049072         0.815316        -1.704637
 C         2.269015         0.606162        -1.025657
 C         3.176574        -0.457779        -1.719469
 C         1.982780         0.557181         0.495332
 O         2.765248         0.532707         1.408119
 H         1.819653        -2.435481        -3.498826
 H         2.046772        -1.455889        -5.097579
 H         3.386525        -2.236058        -4.009449
 H         3.046040         1.808609        -3.609350
 H         2.137369         0.847843        -4.977129
 H         0.298653         0.093063        -3.542205
 H         2.951965         1.507440        -0.964910
 H         4.226092        -0.169292        -1.848148
 H         3.206682        -1.389680        -1.236510
 H         0.921344         0.685957         0.611142
