19
Iteration:  4447charge 0 multiplicity 1
 C         2.560407        -1.752563        -3.956873
 C         2.470824        -0.425464        -3.147747
 C         2.208234         0.953505        -3.837372
 C         1.107011         0.372392        -2.908804
 O         1.134447         0.999828        -1.678882
 C         2.361879         0.736613        -1.041988
 C         3.019098        -0.425029        -1.736138
 C         2.025065         0.411724         0.356863
 O         2.786542         0.494802         1.278412
 H         3.568275        -1.806689        -4.403161
 H         2.521567        -2.477663        -3.156250
 H         1.878490        -2.075662        -4.679872
 H         2.412178         2.063816        -3.513520
 H         2.106166         0.988398        -4.939721
 H         0.259648        -0.165805        -3.153885
 H         3.042843         1.622516        -1.205926
 H         4.166767        -0.368476        -1.755353
 H         2.913506        -1.398350        -1.256491
 H         0.991865        -0.000235         0.398659
