19
Iteration:  3135
 C         2.766125        -1.788979        -3.630095
 C         2.398568        -0.351100        -3.068042
 C         2.021855         0.794798        -3.964794
 C         1.049612         0.271325        -2.842293
 O         1.025372         1.033097        -1.671458
 C         2.325003         0.990031        -1.037325
 C         3.216190         0.055862        -1.894466
 C         1.962450         0.451525         0.372620
 O         2.845820        -0.070070         1.042640
 H         3.877650        -1.841002        -3.336039
 H         2.217560        -2.517030        -3.007959
 H         2.842320        -2.058290        -4.713521
 H         2.500175         1.783003        -3.691818
 H         1.871903         0.616229        -5.002378
 H         0.060176        -0.111329        -3.029065
 H         2.667890         2.052512        -1.058531
 H         4.249543         0.537260        -2.233344
 H         3.623300        -0.889235        -1.339634
 H         0.892767         0.666989         0.896888
