19
Iteration:  2426charge 0 multiplicity 1
 C         2.583147        -1.638100        -3.979188
 C         2.507797        -0.419405        -3.013035
 C         2.208024         0.917097        -3.792677
 C         1.102830         0.120587        -2.982601
 O         0.976647         0.766273        -1.644575
 C         2.278733         0.923762        -1.098073
 C         3.205068        -0.312474        -1.648125
 C         2.096103         0.835906         0.416803
 O         2.758627         0.175450         1.124440
 H         3.557517        -2.009977        -4.227287
 H         2.002188        -2.541540        -3.688518
 H         2.010977        -1.368687        -4.907008
 H         2.399562         1.898929        -3.261736
 H         2.433860         0.773932        -4.893933
 H         0.251316        -0.342848        -3.502116
 H         2.691349         1.843222        -1.512006
 H         4.296995        -0.128862        -1.795076
 H         3.045288        -1.127406        -1.011870
 H         1.389245         1.533899         0.946267
