19
Iteration:  4839
 C         2.473506        -1.722721        -3.855887
 C         2.419893        -0.412508        -3.121452
 C         2.204617         0.885704        -3.985531
 C         1.152907         0.452631        -2.910106
 O         1.108154         0.928370        -1.654972
 C         2.476611         0.839566        -1.151765
 C         3.144719        -0.297034        -1.789404
 C         2.154081         0.248825         0.337217
 O         2.591311         0.497813         1.479853
 H         3.363873        -1.937537        -4.395743
 H         2.305748        -2.649861        -3.255740
 H         1.699619        -1.908535        -4.551839
 H         3.025965         1.689407        -4.087492
 H         1.973446         0.534016        -5.017474
 H         0.196299         0.338133        -3.324405
 H         3.004883         1.881133        -1.123245
 H         4.294041        -0.251607        -1.931135
 H         3.012973        -1.265507        -1.305055
 H         1.238012        -0.430408         0.190790
