19
Iteration:  2110
 C         2.431618        -1.697902        -3.725836
 C         2.442565        -0.418046        -2.995795
 C         2.062424         0.691556        -3.977488
 C         1.150083         0.356424        -2.834683
 O         1.110097         1.058838        -1.661384
 C         2.414898         0.833848        -1.010726
 C         3.474947        -0.020011        -1.924363
 C         2.051574         0.060591         0.193823
 O         2.547705         0.460556         1.309561
 H         3.454479        -1.922410        -4.286812
 H         2.373542        -2.625827        -3.187452
 H         1.834627        -1.650244        -4.722782
 H         2.554719         1.765400        -3.889442
 H         1.730608         0.606705        -4.987109
 H         0.230034        -0.191147        -2.978349
 H         3.087347         1.740198        -0.815000
 H         4.299365         0.725679        -2.155506
 H         3.819049        -0.906582        -1.369059
 H         1.371238        -0.781855        -0.010311
