19
Iteration:  3985
 C         2.591139        -1.703128        -3.805166
 C         2.436434        -0.383455        -3.156176
 C         2.216883         0.861648        -3.964430
 C         1.127794         0.351576        -3.023464
 O         0.999113         0.921501        -1.694216
 C         2.257904         0.929674        -1.025619
 C         3.058687        -0.262531        -1.741446
 C         2.053200         0.415260         0.486635
 O         2.929809         0.273276         1.245340
 H         3.616546        -2.008128        -3.686382
 H         1.937421        -2.459860        -3.257858
 H         2.453131        -1.683120        -4.956867
 H         2.855608         1.728665        -3.808940
 H         2.015759         0.705660        -5.040066
 H         0.033594         0.125152        -3.282640
 H         2.936879         1.837095        -1.015948
 H         4.082601         0.133735        -1.843776
 H         2.945435        -1.154609        -1.053131
 H         0.983260        -0.109102         0.543293
