19
Iteration:   144charge 0 multiplicity 1
 C         2.540429        -1.651019        -4.167943
 C         2.491748        -0.408701        -3.265399
 C         2.291029         0.997243        -3.902599
 C         1.194179         0.302982        -2.957651
 O         1.065024         0.814677        -1.572575
 C         2.374815         0.588216        -0.938859
 C         3.116316        -0.490944        -1.857136
 C         2.017302         0.309499         0.542039
 O         2.646440         0.872427         1.412952
 H         2.333990        -2.531497        -3.435958
 H         1.824105        -1.790405        -4.975162
 H         3.513901        -1.749085        -4.586469
 H         2.727664         1.925301        -3.479098
 H         2.146662         0.780398        -4.974074
 H         0.137855         0.077198        -3.214700
 H         3.084547         1.507126        -0.954092
 H         4.199967        -0.478250        -1.896526
 H         2.870167        -1.443841        -1.501840
 H         1.091674        -0.302300         0.812126
