19
Iteration:  3435charge 0 multiplicity 1
 C         2.816179        -1.830791        -3.668470
 C         2.293963        -0.423308        -3.084289
 C         2.065928         0.827605        -4.069181
 C         1.073142         0.351090        -2.927832
 O         1.045504         0.969620        -1.690726
 C         2.292095         0.935928        -0.989574
 C         3.271146         0.070766        -1.933116
 C         1.988261         0.446562         0.477896
 O         2.797064         0.016286         1.201866
 H         3.815482        -1.758719        -4.058283
 H         2.667683        -2.380624        -2.721232
 H         2.111264        -2.163091        -4.377178
 H         2.745218         1.625070        -3.866448
 H         1.680819         0.766019        -5.128431
 H         0.075483         0.148137        -3.267044
 H         2.806657         1.865709        -0.762321
 H         4.159496         0.543835        -2.404843
 H         3.539421        -0.757091        -1.209450
 H         0.930306         0.530167         0.609359
