19
Iteration:  3541
 C         2.758357        -1.783805        -3.777020
 C         2.370948        -0.417216        -3.189944
 C         2.111486         0.952522        -3.904219
 C         1.091934         0.410088        -3.031792
 O         0.953937         0.907564        -1.661964
 C         2.251014         0.798428        -1.021775
 C         3.085775        -0.189871        -1.790126
 C         2.009753         0.352459         0.415729
 O         2.944248         0.318887         1.244485
 H         3.849607        -1.776461        -4.034140
 H         2.873776        -2.487307        -2.964070
 H         2.203907        -2.269932        -4.561297
 H         2.665462         1.746379        -3.579122
 H         1.990320         0.808856        -4.987347
 H         0.219046         0.387693        -3.640087
 H         2.904921         1.694344        -0.928530
 H         4.038545         0.329535        -1.920563
 H         3.384405        -1.068257        -1.207122
 H         0.966162         0.277881         0.749554
