19
Iteration:  2473charge 0 multiplicity 1
 C         2.798585        -1.688559        -3.910824
 C         2.401947        -0.400571        -3.163539
 C         2.186286         0.876885        -3.985833
 C         1.042283         0.423203        -2.981376
 O         0.902126         0.764804        -1.598837
 C         2.357537         0.787601        -1.021995
 C         3.011494        -0.338215        -1.769604
 C         2.195221         0.856702         0.437393
 O         2.782183         0.160161         1.303346
 H         3.952168        -1.638730        -4.103373
 H         2.842172        -2.560755        -3.281473
 H         2.180026        -2.068991        -4.693204
 H         2.855999         1.706899        -3.671790
 H         1.921171         0.624102        -4.977661
 H         0.065256         0.031312        -3.273701
 H         2.795717         1.693677        -1.494216
 H         4.074870        -0.171938        -1.811641
 H         2.773968        -1.376466        -1.362765
 H         1.287049         1.489020         0.812201
