19
Iteration:  1185charge 0 multiplicity 1
 C         2.444917        -1.694836        -3.955239
 C         2.474035        -0.438976        -3.137625
 C         2.359730         0.986481        -3.735588
 C         1.161831         0.396781        -3.021586
 O         0.899406         0.802507        -1.691253
 C         2.129357         0.651289        -0.987991
 C         3.169135        -0.284709        -1.796230
 C         2.129045         0.184269         0.466697
 O         2.907450         0.737197         1.210213
 H         3.359999        -2.253391        -3.904521
 H         1.662672        -2.385310        -3.518586
 H         2.220256        -1.443377        -5.079259
 H         2.928672         1.696944        -3.241595
 H         2.373391         1.021902        -4.881835
 H         0.312629        -0.089567        -3.682694
 H         2.684973         1.654777        -0.838448
 H         4.177105         0.030531        -1.994552
 H         3.265765        -1.176659        -1.359990
 H         1.310855        -0.544871         0.869692
