19
Iteration:  4958charge 0 multiplicity 1
 C         2.560952        -1.748888        -3.900006
 C         2.381471        -0.453757        -3.123736
 C         2.267167         0.935783        -3.818262
 C         1.149348         0.437272        -3.007969
 O         1.080056         0.927348        -1.716835
 C         2.357380         0.717900        -0.963461
 C         3.056630        -0.399907        -1.858647
 C         2.012125         0.385067         0.448103
 O         2.821668         0.527696         1.282120
 H         3.509567        -1.788839        -4.386538
 H         2.402389        -2.700005        -3.313981
 H         1.863434        -1.820361        -4.695867
 H         2.659489         1.892129        -3.354402
 H         2.125447         0.978244        -4.919320
 H         0.235094         0.169930        -3.410846
 H         2.993795         1.534070        -1.078815
 H         4.175019        -0.297148        -1.954856
 H         2.938236        -1.292851        -1.262061
 H         0.876740         0.307720         0.681822
