19
Iteration:  1611
 C         2.507110        -1.766037        -3.882279
 C         2.520646        -0.402165        -3.147457
 C         1.979054         0.851904        -3.900755
 C         1.167898         0.250291        -2.764343
 O         1.202804         1.077084        -1.620857
 C         2.481849         0.785161        -1.006755
 C         3.337783        -0.091300        -1.887411
 C         2.072181         0.093148         0.256200
 O         2.478675         0.540723         1.289742
 H         3.372122        -1.820034        -4.497262
 H         2.475205        -2.625638        -3.110472
 H         1.481075        -1.830163        -4.483862
 H         2.294941         1.891476        -3.568695
 H         1.656863         0.566698        -4.891344
 H         0.273636        -0.289233        -3.142636
 H         3.074289         1.741583        -0.694684
 H         4.215514         0.459493        -2.226613
 H         3.695166        -1.015339        -1.401778
 H         1.382670        -0.862728        -0.025260
