19
Iteration:   432
 C         2.680905        -1.761799        -3.787551
 C         2.438499        -0.365842        -3.148452
 C         2.418586         0.954627        -3.913332
 C         1.182747         0.424096        -3.087487
 O         0.899416         0.949211        -1.688383
 C         2.127146         0.733641        -1.018219
 C         2.940803        -0.272389        -1.659104
 C         1.966830         0.519541         0.467110
 O         2.988931         0.245959         1.103687
 H         2.351951        -2.455700        -2.903611
 H         2.056581        -2.175548        -4.690740
 H         3.698096        -2.033597        -3.838310
 H         3.164764         1.670213        -3.602344
 H         2.278498         0.657323        -4.936886
 H         0.156993         0.087012        -3.535059
 H         2.689707         1.738877        -0.992013
 H         4.036407        -0.013428        -1.472217
 H         2.853065        -1.322976        -1.203949
 H         1.057674         0.684994         0.944126
