19
Iteration:  3633
 C         2.659454        -1.622450        -4.097982
 C         2.420228        -0.451083        -3.169029
 C         2.240105         0.972052        -3.803767
 C         1.144871         0.408343        -3.028113
 O         0.909851         0.636341        -1.576338
 C         2.276394         0.600126        -1.026368
 C         3.060732        -0.424912        -1.821330
 C         2.018282         0.510392         0.499752
 O         2.932304         0.705053         1.357336
 H         3.686788        -1.855733        -3.958422
 H         2.190007        -2.553826        -3.688308
 H         2.314167        -1.352845        -5.091365
 H         2.961361         1.792130        -3.401617
 H         2.136672         0.994429        -4.870645
 H         0.118785         0.399082        -3.494845
 H         2.793763         1.529384        -1.361767
 H         4.144071        -0.373435        -1.826622
 H         3.028374        -1.482539        -1.522206
 H         0.933788         0.272257         0.752456
