19
Iteration:  2558charge 0 multiplicity 1
 C         2.496692        -1.759333        -3.764874
 C         2.504686        -0.356383        -3.082249
 C         2.279969         0.825380        -4.006532
 C         1.166274         0.335945        -3.004476
 O         0.936235         0.867622        -1.670789
 C         2.201531         0.897422        -1.025458
 C         3.205546        -0.108878        -1.753503
 C         2.044207         0.393951         0.412052
 O         2.882500         0.255619         1.229027
 H         3.460224        -2.142342        -3.987855
 H         2.027801        -2.365281        -2.985021
 H         1.940387        -1.832456        -4.740036
 H         2.740751         1.871245        -3.763349
 H         2.115708         0.976538        -5.080430
 H         0.227036         0.022895        -3.469972
 H         2.694133         1.856945        -1.142944
 H         4.180521         0.326194        -1.828724
 H         3.371450        -1.019746        -1.221226
 H         0.982061         0.329875         0.649217
