19
Iteration:  1952
 C         2.644377        -1.721210        -3.775162
 C         2.361905        -0.341625        -3.167107
 C         2.116488         0.941218        -4.037028
 C         1.138302         0.354528        -2.959457
 O         1.067298         0.989952        -1.717106
 C         2.310201         0.747181        -0.951340
 C         3.117535        -0.301652        -1.863396
 C         2.147324         0.161528         0.395284
 O         2.739502         0.536067         1.362431
 H         3.668805        -1.750873        -4.058103
 H         2.642352        -2.460975        -2.877479
 H         2.051734        -1.962318        -4.625766
 H         2.734865         1.920185        -3.810468
 H         1.993948         0.809896        -5.064142
 H         0.084140        -0.002508        -3.227677
 H         2.845754         1.644744        -0.895805
 H         4.164165        -0.085999        -2.080091
 H         3.086278        -1.232437        -1.300035
 H         1.405484        -0.624224         0.573682
