19
Iteration:   742
 C         2.568931        -1.657360        -4.144096
 C         2.467037        -0.480667        -3.211982
 C         2.242148         0.957396        -3.868066
 C         1.206150         0.330563        -2.971550
 O         1.124317         0.833105        -1.652303
 C         2.447545         0.714248        -1.016174
 C         3.030228        -0.509647        -1.858901
 C         1.960689         0.611083         0.497874
 O         2.689971         0.576246         1.541799
 H         2.295043        -2.588173        -3.568573
 H         1.806847        -1.414831        -4.927966
 H         3.514391        -1.973516        -4.575553
 H         2.806506         1.791318        -3.507892
 H         2.127945         0.926524        -4.939384
 H         0.249952        -0.065615        -3.417705
 H         3.141042         1.535133        -0.999113
 H         4.100139        -0.673362        -1.968489
 H         2.555160        -1.455436        -1.314228
 H         0.929746         0.528125         0.535466
