19
Iteration:   801charge 0 multiplicity 1
 C         2.539253        -1.716951        -4.042116
 C         2.432484        -0.438399        -3.124618
 C         2.397400         0.943713        -3.803294
 C         1.232735         0.461144        -3.082024
 O         1.029967         0.962966        -1.735014
 C         2.206025         0.616242        -0.974945
 C         2.958470        -0.473653        -1.717903
 C         2.033109         0.251845         0.464960
 O         2.836582         0.702350         1.327028
 H         2.605335        -2.646117        -3.510922
 H         1.693148        -1.953793        -4.645321
 H         3.464967        -1.519477        -4.700606
 H         2.897120         1.747882        -3.211907
 H         2.276023         1.160422        -4.901837
 H         0.235956         0.300048        -3.521506
 H         2.777800         1.560191        -0.968789
 H         4.074104        -0.246839        -1.521724
 H         2.716787        -1.497810        -1.238055
 H         1.424687        -0.524268         0.768361
