19
Iteration:  3064
 C         2.579662        -1.746312        -3.857696
 C         2.491929        -0.438293        -3.045006
 C         2.089334         0.851711        -3.846655
 C         1.136583         0.178835        -2.977592
 O         1.014292         0.958520        -1.720353
 C         2.225134         0.919620        -1.021910
 C         3.284051         0.024168        -1.739994
 C         1.964655         0.500183         0.398063
 O         2.886407         0.068489         1.132831
 H         3.406481        -1.720528        -4.571646
 H         2.762356        -2.590238        -3.110745
 H         1.688592        -1.765535        -4.493441
 H         2.505345         1.881401        -3.525060
 H         2.075405         0.610497        -4.888833
 H         0.251321        -0.334963        -3.312108
 H         2.629287         1.986817        -0.925807
 H         4.135509         0.707034        -1.990740
 H         3.640226        -0.653693        -0.908191
 H         0.864488         0.694103         0.870199
