19
Iteration:  3409charge 0 multiplicity 1
 C         2.710502        -1.752214        -3.633425
 C         2.540038        -0.377705        -3.020100
 C         2.038615         0.741937        -3.987800
 C         1.138939         0.334990        -2.917698
 O         0.889204         1.061141        -1.727562
 C         2.238942         0.984778        -1.024130
 C         3.242823         0.005268        -1.766232
 C         2.014325         0.506395         0.355685
 O         2.881828        -0.088266         1.060624
 H         3.723225        -1.697483        -4.217194
 H         2.795962        -2.463580        -2.794318
 H         1.789950        -1.997752        -4.281468
 H         2.522723         1.740228        -3.928372
 H         1.850306         0.415631        -4.960782
 H         0.243682        -0.244236        -3.229631
 H         2.768621         1.939392        -0.891400
 H         4.230005         0.450919        -2.026942
 H         3.325221        -0.761519        -1.009447
 H         0.946353         0.463018         0.586825
