19
Iteration:  4487charge 0 multiplicity 1
 C         2.576838        -1.716635        -4.005100
 C         2.368862        -0.417573        -3.132020
 C         2.325711         0.882898        -3.944752
 C         1.140423         0.461054        -3.077627
 O         0.993890         0.867260        -1.647137
 C         2.221509         0.738518        -1.074683
 C         3.037708        -0.386059        -1.773921
 C         2.057905         0.533738         0.517596
 O         2.921575         0.451227         1.431527
 H         3.643195        -1.704277        -4.244471
 H         2.426256        -2.777362        -3.510761
 H         1.917342        -1.726016        -4.970227
 H         2.942601         1.638681        -3.596852
 H         2.220438         0.503779        -4.925813
 H         0.220330         0.037469        -3.448003
 H         2.849036         1.629757        -1.123864
 H         4.116788        -0.151420        -1.697536
 H         2.964990        -1.414243        -1.248570
 H         0.928785         0.463161         0.769282
