19
Iteration:  3916
 C         2.513714        -1.741080        -3.940272
 C         2.437631        -0.461007        -3.125152
 C         2.212768         0.708114        -3.992305
 C         1.131971         0.408952        -2.975783
 O         1.005347         1.013509        -1.596803
 C         2.321183         0.941723        -1.014079
 C         3.286701        -0.131091        -1.811568
 C         2.010096         0.341131         0.409624
 O         2.774406         0.294412         1.398161
 H         3.379451        -1.928234        -4.619943
 H         2.514814        -2.630938        -3.233158
 H         1.631082        -1.832158        -4.629052
 H         2.968858         1.504204        -3.881440
 H         1.950023         0.505195        -5.075841
 H         0.225406         0.145834        -3.443115
 H         2.752931         1.957496        -1.073579
 H         4.125803         0.542503        -2.003464
 H         3.595696        -1.022875        -1.178620
 H         1.034167        -0.225855         0.383839
