19
Iteration:  4554charge 0 multiplicity 1
 C         2.527213        -1.694400        -3.828451
 C         2.458523        -0.357915        -3.118714
 C         2.402445         1.004605        -3.728220
 C         1.174347         0.421406        -3.060284
 O         0.938765         0.760840        -1.694427
 C         2.210027         0.708341        -1.084946
 C         2.965592        -0.432972        -1.747488
 C         2.042380         0.546965         0.410613
 O         2.966998         0.424612         1.163138
 H         3.589654        -2.009462        -3.688438
 H         1.926763        -2.445113        -3.153754
 H         2.137676        -1.740933        -4.888104
 H         2.931570         2.000952        -3.529210
 H         2.256979         0.880857        -4.801418
 H         0.251740         0.165494        -3.497424
 H         2.708655         1.651423        -1.356172
 H         4.071232        -0.138880        -1.656081
 H         2.831896        -1.452619        -1.237401
 H         1.063097         0.506872         0.853821
