19
Iteration:  3161charge 0 multiplicity 1
 C         2.594005        -1.762338        -3.673680
 C         2.570912        -0.408569        -2.954480
 C         1.986002         0.753074        -3.940370
 C         1.153880         0.182038        -2.875305
 O         0.963847         1.047973        -1.752813
 C         2.291977         0.983347        -1.062278
 C         3.300920         0.199578        -1.791746
 C         2.007255         0.483914         0.362763
 O         2.850134        -0.124941         1.042983
 H         3.598525        -2.055995        -3.823876
 H         1.880902        -2.489867        -3.237515
 H         2.394284        -1.611810        -4.726698
 H         2.375291         1.689024        -3.629342
 H         1.878536         0.619703        -5.043245
 H         0.211315        -0.354489        -3.089798
 H         2.524496         2.005734        -0.984198
 H         4.174639         0.642906        -2.066896
 H         3.708400        -0.470824        -1.053075
 H         0.997088         0.809211         0.884452
