19
Iteration:  2452charge 0 multiplicity 1
 C         2.682571        -1.655524        -3.954564
 C         2.512930        -0.398456        -3.120027
 C         2.149024         0.904176        -3.815306
 C         1.142680         0.210558        -2.951715
 O         0.977126         0.797123        -1.650710
 C         2.236843         0.841923        -1.052836
 C         3.070298        -0.358956        -1.718579
 C         2.153727         0.874847         0.389992
 O         2.771631         0.167122         1.221610
 H         3.787482        -1.893783        -4.161264
 H         2.503861        -2.558476        -3.409334
 H         2.092404        -1.665927        -4.857273
 H         2.560323         1.814245        -3.434464
 H         1.829722         0.786925        -4.815292
 H         0.293690        -0.117180        -3.539375
 H         2.737378         1.761361        -1.412739
 H         4.129548        -0.187257        -1.768421
 H         2.717243        -1.354859        -1.253023
 H         1.613309         1.693008         0.855982
