19
Iteration:  1187charge 0 multiplicity 1
 C         2.450571        -1.704229        -3.946757
 C         2.462498        -0.424422        -3.133300
 C         2.343430         0.985614        -3.727441
 C         1.169499         0.412138        -3.025704
 O         0.923218         0.797121        -1.702963
 C         2.110668         0.651571        -0.998496
 C         3.165377        -0.284664        -1.799432
 C         2.139369         0.188566         0.480901
 O         2.901060         0.738647         1.191502
 H         3.389224        -2.211541        -4.033078
 H         1.642467        -2.336856        -3.478191
 H         2.247839        -1.424271        -5.012305
 H         2.924690         1.711419        -3.156751
 H         2.377889         0.956126        -4.800482
 H         0.302682        -0.120294        -3.654352
 H         2.688773         1.594327        -0.833525
 H         4.190915        -0.028102        -1.959906
 H         3.243480        -1.245054        -1.306083
 H         1.329226        -0.611587         0.879220
