19
Iteration:  1868
 C         2.549785        -1.724929        -3.922796
 C         2.549303        -0.362047        -3.191687
 C         2.251984         1.127401        -3.769998
 C         1.193573         0.340478        -3.053982
 O         0.909390         0.623342        -1.698799
 C         2.259585         0.630122        -1.069084
 C         3.086373        -0.429166        -1.796610
 C         1.999702         0.628795         0.511746
 O         2.930772         0.536553         1.311889
 H         3.588175        -1.952829        -4.280559
 H         2.116162        -2.517850        -3.280247
 H         1.956008        -1.800225        -4.813661
 H         2.639353         1.883017        -3.025711
 H         2.096084         1.335955        -4.772190
 H         0.254395        -0.062240        -3.560858
 H         2.802452         1.602079        -1.399521
 H         4.187916        -0.222572        -1.799860
 H         2.948780        -1.440632        -1.387516
 H         0.913116         0.825267         0.681870
