19
Iteration:  4272charge 0 multiplicity 1
 C         2.491036        -1.726252        -3.952150
 C         2.435977        -0.419515        -3.261441
 C         2.122713         0.884942        -3.876641
 C         1.111976         0.383278        -2.883564
 O         1.240669         1.016059        -1.635700
 C         2.494627         0.687959        -1.006259
 C         3.191146        -0.368019        -1.864952
 C         2.024372         0.254608         0.430363
 O         2.613528         0.631774         1.344236
 H         3.472279        -1.726110        -4.535938
 H         2.649247        -2.538699        -3.231672
 H         1.730387        -1.893810        -4.720993
 H         2.647596         1.810894        -3.716242
 H         1.682072         0.758055        -4.968321
 H         0.050731        -0.031923        -3.197534
 H         3.010508         1.645272        -0.582293
 H         4.322463        -0.278610        -1.749821
 H         2.801499        -1.286310        -1.476331
 H         1.132802        -0.433244         0.482427
