19
Iteration:  1067charge 0 multiplicity 1
 C         2.627984        -1.735592        -3.925672
 C         2.394786        -0.435821        -3.080161
 C         2.270319         0.831522        -3.927348
 C         1.106928         0.370642        -2.981789
 O         0.938821         0.990799        -1.700497
 C         2.302080         0.889833        -1.047893
 C         3.101701        -0.211201        -1.731538
 C         2.056237         0.466880         0.408818
 O         2.919056         0.243519         1.322964
 H         3.423125        -1.534898        -4.702654
 H         3.061308        -2.573138        -3.307868
 H         1.617299        -2.036320        -4.290351
 H         2.823274         1.683593        -3.721945
 H         1.901337         0.585141        -4.939479
 H         0.084462         0.108102        -3.496278
 H         2.690728         1.884068        -1.084009
 H         4.200635        -0.158273        -1.710035
 H         2.876715        -1.252691        -1.142711
 H         0.903076         0.172825         0.526899
