19
Iteration:   638charge 0 multiplicity 1
 C         2.679379        -1.727388        -3.677852
 C         2.417762        -0.366470        -3.063779
 C         2.413233         0.933946        -3.878617
 C         1.178657         0.427114        -3.049467
 O         0.928309         1.055823        -1.808706
 C         2.168903         0.800073        -0.956925
 C         2.839031        -0.357097        -1.707274
 C         1.979530         0.290656         0.468412
 O         3.002257         0.333751         1.045250
 H         2.193537        -2.544342        -3.007380
 H         2.097032        -2.044694        -4.629402
 H         3.847302        -1.733931        -3.946194
 H         3.064271         1.767278        -3.584445
 H         2.513829         0.672151        -4.931685
 H         0.398725         0.174653        -3.707162
 H         2.902929         1.661778        -0.736517
 H         3.916767        -0.031031        -1.725503
 H         2.823499        -1.295527        -1.219622
 H         0.857321        -0.121918         0.739657
