19
Iteration:   480charge 0 multiplicity 1
 C         2.755616        -1.692346        -3.841690
 C         2.465723        -0.432643        -3.032670
 C         2.361338         0.866580        -3.758002
 C         1.094271         0.328977        -3.077902
 O         0.909666         0.983692        -1.711294
 C         2.153123         0.873055        -1.081424
 C         2.909220        -0.406720        -1.628523
 C         2.058430         0.705974         0.399670
 O         2.924837         0.127022         1.055533
 H         2.551868        -2.630000        -3.364998
 H         2.227927        -1.606371        -4.786113
 H         3.952337        -1.807184        -4.008833
 H         2.482715         1.795346        -3.186273
 H         2.587111         0.738011        -4.835471
 H         0.187902         0.067636        -3.516468
 H         2.768554         1.854968        -1.162371
 H         3.948809        -0.273062        -1.571955
 H         2.709708        -1.269183        -1.061608
 H         1.278563         1.176502         0.883804
