19
Iteration:  4677charge 0 multiplicity 1
 C         2.446932        -1.765829        -3.881085
 C         2.426606        -0.416807        -3.200291
 C         2.299211         0.861914        -3.985222
 C         1.148857         0.440433        -3.073179
 O         1.104763         0.922665        -1.694192
 C         2.321916         0.731479        -0.987471
 C         3.099985        -0.291674        -1.864979
 C         2.021643         0.311610         0.509181
 O         2.774773         0.547037         1.486283
 H         3.505136        -1.896883        -4.317641
 H         2.073888        -2.649292        -3.253338
 H         1.732821        -1.605828        -4.718121
 H         2.989624         1.581067        -3.586646
 H         2.033544         0.916449        -5.080691
 H         0.238325         0.131327        -3.588614
 H         2.986083         1.593393        -1.017675
 H         4.075725         0.301665        -2.069070
 H         3.530332        -1.168638        -1.338851
 H         1.203331        -0.425108         0.762675
