19
Iteration:  4721
 C         2.394120        -1.729414        -3.806257
 C         2.435351        -0.406723        -3.149809
 C         2.278204         0.875323        -3.877587
 C         1.159939         0.404926        -2.983055
 O         1.086645         0.949040        -1.712303
 C         2.395734         0.757745        -1.026428
 C         3.175522        -0.235373        -1.774119
 C         2.135688         0.164099         0.254463
 O         2.676743         0.577261         1.352538
 H         3.475608        -2.139515        -3.770717
 H         1.761833        -2.341500        -3.060754
 H         1.772288        -1.719399        -4.730282
 H         2.632500         1.783670        -3.402318
 H         2.072522         0.994731        -4.940979
 H         0.250494         0.067067        -3.427180
 H         2.834404         1.748234        -0.912350
 H         4.306825         0.004232        -1.820107
 H         3.199682        -1.265808        -1.286726
 H         1.410991        -0.768865         0.120945
