19
Iteration:  2286charge 0 multiplicity 1
 C         2.586219        -1.803667        -3.620673
 C         2.438016        -0.399027        -3.123332
 C         2.097158         0.864342        -3.988313
 C         1.144079         0.342954        -2.966493
 O         1.121155         1.007213        -1.745302
 C         2.274369         0.877154        -1.051008
 C         3.240296        -0.006868        -1.887375
 C         2.009047         0.284029         0.373185
 O         2.774154         0.216936         1.324810
 H         3.660635        -2.032866        -3.945436
 H         2.387088        -2.511067        -2.862267
 H         1.823826        -2.060749        -4.405994
 H         2.604841         1.657770        -3.559322
 H         1.952345         0.802927        -5.114616
 H         0.140340         0.064375        -3.376679
 H         2.636083         1.905305        -0.841354
 H         4.158223         0.431871        -2.253685
 H         3.538405        -1.007327        -1.487355
 H         0.930227        -0.003705         0.403108
