19
Iteration:   746
 C         2.576205        -1.658692        -4.158175
 C         2.429045        -0.461110        -3.182882
 C         2.221194         0.972770        -3.836571
 C         1.203315         0.309740        -2.999042
 O         1.138572         0.848668        -1.654373
 C         2.457563         0.716979        -1.040607
 C         3.033207        -0.572965        -1.818948
 C         1.998927         0.596563         0.496470
 O         2.671450         0.584720         1.530032
 H         2.373120        -2.445582        -3.511996
 H         1.885061        -1.550416        -4.922035
 H         3.555394        -1.895972        -4.781471
 H         2.966360         1.806832        -3.661681
 H         2.046445         0.922418        -4.898250
 H         0.259053         0.033301        -3.346515
 H         3.065568         1.668088        -1.064602
 H         4.174848        -0.642076        -1.930000
 H         2.536273        -1.402403        -1.258924
 H         0.771398         0.477167         0.516746
