19
Iteration:  2487
 C         2.810737        -1.700901        -3.847481
 C         2.288295        -0.461441        -3.184813
 C         2.151228         0.871720        -3.911526
 C         1.105700         0.375530        -3.024327
 O         1.031157         0.795581        -1.645096
 C         2.287791         0.812618        -1.094516
 C         3.014967        -0.319157        -1.772486
 C         2.114694         0.768770         0.474614
 O         2.827133         0.178022         1.319805
 H         3.717766        -1.340266        -4.340136
 H         2.822928        -2.515272        -3.099367
 H         2.227652        -1.946371        -4.745979
 H         2.711562         1.700770        -3.868446
 H         1.833727         0.896111        -4.978561
 H         0.111679         0.308057        -3.524159
 H         2.762829         1.828311        -1.034960
 H         4.123180        -0.194810        -1.879793
 H         2.961944        -1.246504        -1.092239
 H         1.334336         1.490686         0.759092
