19
Iteration:  1119
 C         2.634420        -1.689380        -3.926874
 C         2.481709        -0.368195        -3.154420
 C         2.043989         0.966740        -3.878899
 C         1.135309         0.284709        -2.968845
 O         1.104188         0.963128        -1.676431
 C         2.328951         0.700669        -1.045585
 C         3.102561        -0.442137        -1.821154
 C         2.010736         0.482728         0.427032
 O         2.837664         0.440722         1.337470
 H         3.629720        -1.976107        -3.885576
 H         1.995845        -2.407448        -3.411562
 H         2.449373        -1.585475        -5.045721
 H         2.489505         1.834511        -3.444187
 H         1.884063         0.790611        -4.961624
 H         0.189662        -0.241512        -3.099452
 H         2.923760         1.669420        -1.087645
 H         4.136170        -0.123073        -1.739973
 H         3.103243        -1.368570        -1.405748
 H         0.905702         0.468358         0.591756
