19
Iteration:   790
 C         2.531427        -1.650162        -4.059163
 C         2.390043        -0.451728        -3.179306
 C         2.385908         0.943736        -3.764564
 C         1.164215         0.372090        -2.943123
 O         1.094322         0.968587        -1.748941
 C         2.255837         0.679512        -1.009791
 C         3.006286        -0.536653        -1.710165
 C         2.003239         0.272310         0.516078
 O         2.784264         0.700322         1.283418
 H         2.955578        -2.401873        -3.460909
 H         1.793781        -1.820452        -4.783523
 H         3.468049        -1.421365        -4.734451
 H         3.053761         1.801045        -3.483589
 H         2.254726         0.884340        -4.891590
 H         0.234492         0.282942        -3.498987
 H         3.005977         1.482922        -0.913822
 H         4.170025        -0.467126        -1.684547
 H         2.666482        -1.568279        -1.304583
 H         1.116977        -0.272150         0.669028
