19
Iteration:    21
 C         2.831647        -1.811655        -3.769390
 C         2.445168        -0.410441        -3.132317
 C         2.222249         0.936480        -3.866824
 C         1.105083         0.407155        -2.999834
 O         0.872414         0.869846        -1.625678
 C         2.238754         0.947283        -1.055177
 C         3.050198        -0.222486        -1.695034
 C         2.003898         0.527810         0.378942
 O         2.912294         0.176262         1.073148
 H         2.591910        -2.722565        -3.148640
 H         2.483266        -1.879521        -4.708078
 H         3.891041        -1.904388        -3.846774
 H         2.842623         1.762169        -3.500595
 H         2.110936         0.972244        -4.940929
 H         0.136626         0.081268        -3.391157
 H         2.560690         2.015650        -1.249725
 H         4.087801        -0.074413        -1.543705
 H         2.733567        -1.096610        -1.193611
 H         0.864488         0.354137         0.693429
