19
Iteration:  4686
 C         2.404810        -1.755569        -3.910229
 C         2.408789        -0.433890        -3.224021
 C         2.335140         0.819930        -3.956634
 C         1.196373         0.448662        -3.030520
 O         1.035900         0.969484        -1.696485
 C         2.348141         0.664061        -0.932304
 C         3.190805        -0.198739        -1.838091
 C         2.023677         0.205340         0.485709
 O         2.770164         0.599507         1.400875
 H         3.422248        -2.089617        -4.236858
 H         2.069494        -2.588940        -3.178461
 H         1.892816        -1.879592        -4.851823
 H         2.910131         1.701954        -3.618640
 H         2.028627         0.916907        -5.067255
 H         0.127019         0.229479        -3.318196
 H         2.836062         1.681053        -0.734975
 H         4.217683         0.286609        -1.989527
 H         3.297162        -1.225318        -1.425845
 H         1.034759        -0.384665         0.688738
