19
Iteration:  4494charge 0 multiplicity 1
 C         2.539673        -1.706079        -3.979164
 C         2.403100        -0.494531        -3.149365
 C         2.323397         0.893870        -3.956162
 C         1.153838         0.439160        -3.044146
 O         0.932826         0.843739        -1.671780
 C         2.215735         0.779308        -1.035822
 C         3.077346        -0.360572        -1.768331
 C         2.043126         0.531165         0.516975
 O         2.948975         0.445199         1.427020
 H         3.585846        -1.672956        -4.319200
 H         2.279399        -2.675477        -3.688206
 H         2.024511        -1.484327        -4.907437
 H         3.170787         1.529090        -3.626951
 H         2.380821         0.687931        -5.074647
 H         0.205256         0.018695        -3.558053
 H         2.852903         1.721582        -1.167992
 H         4.124856        -0.279177        -1.595184
 H         2.840567        -1.244237        -1.230513
 H         0.974361         0.529753         0.746430
