19
Iteration:   664charge 0 multiplicity 1
 C         2.571764        -1.826424        -3.691571
 C         2.479352        -0.406333        -3.059540
 C         2.476897         0.965438        -3.775261
 C         1.198796         0.499732        -3.100223
 O         0.863290         0.879254        -1.780746
 C         2.096316         0.907009        -1.063006
 C         2.944478        -0.279443        -1.695622
 C         2.040392         0.395424         0.370224
 O         3.027891         0.302400         1.158257
 H         1.883669        -2.685699        -3.403380
 H         2.215111        -1.698689        -4.797905
 H         3.590111        -2.066015        -3.732055
 H         2.968938         1.901754        -3.375571
 H         2.260968         1.038001        -4.858229
 H         0.382224         0.250931        -3.832364
 H         2.722322         1.792966        -1.065929
 H         4.013326        -0.188555        -1.487791
 H         2.654885        -1.339268        -1.190648
 H         0.981860        -0.234068         0.539417
