19
Iteration:  2497charge 0 multiplicity 1
 C         2.761474        -1.703131        -3.875459
 C         2.358730        -0.502855        -3.126652
 C         2.184905         0.930139        -3.892865
 C         1.069442         0.322096        -2.983545
 O         1.013103         0.883468        -1.710790
 C         2.292974         0.804535        -1.076779
 C         3.065077        -0.290725        -1.824379
 C         2.067355         0.698724         0.508917
 O         2.834577         0.201934         1.273103
 H         3.861740        -1.559952        -4.194483
 H         2.932709        -2.614739        -3.286556
 H         2.020205        -2.026384        -4.581045
 H         2.711396         1.719963        -3.527313
 H         1.875961         0.689164        -4.915890
 H        -0.018180         0.137568        -3.184313
 H         2.821167         1.804423        -1.237791
 H         4.142582        -0.063857        -1.895031
 H         2.871406        -1.250005        -1.184459
 H         1.240711         1.422748         0.916671
