19
Iteration:  4637
 C         2.573361        -1.702011        -3.926274
 C         2.492384        -0.447587        -3.151039
 C         2.191538         0.931851        -3.867618
 C         1.175887         0.327700        -2.938750
 O         1.136315         0.941051        -1.625959
 C         2.352664         0.794527        -1.043522
 C         3.035013        -0.420470        -1.751769
 C         2.007408         0.498499         0.359526
 O         2.763704         0.456945         1.279399
 H         3.378043        -1.942969        -4.583562
 H         2.330025        -2.510989        -3.340255
 H         1.728877        -1.630828        -4.631687
 H         2.798174         1.711530        -3.490330
 H         2.105675         0.866227        -4.914502
 H         0.204186        -0.004941        -3.114656
 H         2.962754         1.708143        -1.120564
 H         4.056937        -0.246073        -1.688051
 H         2.809969        -1.413512        -1.401724
 H         0.917076         0.052496         0.328752
