19
Iteration:  3429charge 0 multiplicity 1
 C         2.819856        -1.835138        -3.670957
 C         2.353054        -0.390530        -3.125685
 C         2.114149         0.775968        -4.026511
 C         1.071699         0.355724        -2.912976
 O         1.034119         1.011382        -1.635277
 C         2.272785         0.962985        -1.008987
 C         3.205380         0.064750        -1.908839
 C         1.981272         0.427572         0.401076
 O         2.820160        -0.003555         1.180716
 H         3.887627        -1.854210        -4.029413
 H         2.816749        -2.534067        -2.815446
 H         1.936011        -2.187435        -4.330043
 H         2.791552         1.656770        -3.964073
 H         1.607193         0.608245        -5.014569
 H         0.025421         0.084284        -3.176584
 H         2.685720         2.032241        -0.950394
 H         4.071347         0.683411        -2.158933
 H         3.460721        -0.826679        -1.363941
 H         0.855277         0.605770         0.767949
