19
Iteration:  3830charge 0 multiplicity 1
 C         2.560410        -1.825177        -3.890842
 C         2.401227        -0.398876        -3.165130
 C         2.189628         0.879939        -3.950222
 C         1.085256         0.448718        -2.975577
 O         1.073366         0.988326        -1.640054
 C         2.364386         0.874842        -1.005430
 C         3.156626        -0.249610        -1.890683
 C         2.185820         0.180029         0.377191
 O         2.661629         0.503417         1.451792
 H         3.624570        -1.900353        -3.849843
 H         2.029916        -2.644935        -3.360937
 H         2.375503        -1.669775        -4.967131
 H         2.656323         1.805364        -3.819626
 H         1.879158         0.352557        -4.901537
 H         0.155310         0.139286        -3.365876
 H         2.932107         1.856658        -0.947566
 H         4.151675         0.113824        -2.041421
 H         3.162809        -1.254853        -1.367914
 H         1.572311        -0.831126         0.312314
