19
Iteration:     2charge 0 multiplicity 1
 C         2.717846        -1.707244        -3.795642
 C         2.494582        -0.379687        -3.094238
 C         2.174006         0.882963        -3.896332
 C         1.137443         0.284695        -2.969992
 O         0.972479         0.846172        -1.700642
 C         2.228124         0.880857        -1.049061
 C         3.156710        -0.149798        -1.750775
 C         1.995388         0.612897         0.431710
 O         2.803242         0.122324         1.166688
 H         2.467539        -2.557695        -3.175593
 H         2.074113        -1.799780        -4.734006
 H         3.782291        -1.764370        -4.118020
 H         2.667977         1.795771        -3.593163
 H         2.051045         0.760416        -4.979328
 H         0.223525        -0.125467        -3.365839
 H         2.693624         1.856455        -1.110825
 H         4.215224         0.196339        -1.795831
 H         3.179473        -1.104624        -1.171883
 H         1.006176         0.880683         0.737493
