19
Iteration:  3265
 C         2.699072        -1.689780        -3.655154
 C         2.562074        -0.371617        -2.986443
 C         2.015228         0.640713        -3.991735
 C         1.081338         0.259035        -2.869047
 O         1.002078         1.079569        -1.702110
 C         2.295507         1.027453        -1.009450
 C         3.328306         0.063979        -1.723112
 C         1.988678         0.528154         0.391756
 O         2.769849        -0.170062         0.936734
 H         3.524385        -1.623041        -4.369757
 H         2.898873        -2.533891        -3.055603
 H         1.664895        -1.701491        -4.009003
 H         2.290650         1.660331        -4.324129
 H         1.771930         0.160972        -4.943288
 H         0.235510        -0.408717        -2.907578
 H         2.583676         2.067525        -1.034677
 H         4.108707         0.773506        -2.005798
 H         3.594934        -0.782825        -1.125474
 H         0.959915         1.065457         0.791586
