19
Iteration:  2576charge 0 multiplicity 1
 C         2.528495        -1.847793        -3.622498
 C         2.439223        -0.421500        -3.191701
 C         2.237268         0.988246        -3.889196
 C         1.165699         0.438334        -3.075362
 O         0.935665         0.900747        -1.754392
 C         2.243486         0.767616        -1.004561
 C         3.164669        -0.090000        -1.932298
 C         2.046922         0.394602         0.485570
 O         2.898124         0.268794         1.285916
 H         3.577385        -2.153696        -3.817885
 H         2.159989        -2.618907        -2.863161
 H         2.286939        -1.995848        -4.699259
 H         3.050193         1.728614        -3.806838
 H         2.013754         0.843210        -4.910046
 H         0.222483         0.095610        -3.458169
 H         2.569938         1.835173        -0.874644
 H         4.172265         0.453646        -2.081483
 H         3.375176        -0.969484        -1.286191
 H         0.944582         0.053951         0.711030
