19
Iteration:  1742
 C         2.580084        -1.770133        -3.851482
 C         2.409959        -0.370735        -3.238753
 C         2.251945         0.893221        -3.962122
 C         1.181980         0.434034        -3.032563
 O         0.904429         0.724113        -1.622775
 C         2.235925         0.826478        -1.040452
 C         3.163231        -0.154473        -1.826871
 C         2.060053         0.426486         0.527194
 O         2.890666         0.398934         1.362526
 H         3.570116        -1.906298        -4.114485
 H         2.332024        -2.555883        -3.194869
 H         2.089819        -1.916396        -4.839049
 H         3.021189         1.702910        -3.836628
 H         2.069346         0.843249        -5.041258
 H         0.225489         0.166311        -3.549496
 H         2.637180         1.891717        -1.125979
 H         4.174622         0.233076        -1.727617
 H         3.191713        -1.048184        -1.188677
 H         0.991237        -0.060074         0.549814
