19
Iteration:  4478charge 0 multiplicity 1
 C         2.616196        -1.713161        -4.002407
 C         2.363492        -0.408139        -3.146947
 C         2.305998         0.860654        -3.895712
 C         1.125140         0.431637        -3.046714
 O         1.032370         0.902539        -1.686354
 C         2.317236         0.691158        -1.003180
 C         2.993267        -0.422475        -1.764999
 C         2.058089         0.525438         0.507514
 O         2.871528         0.466014         1.382003
 H         3.659316        -1.768712        -4.360589
 H         2.461777        -2.508482        -3.214507
 H         1.954607        -1.911286        -4.867383
 H         2.701510         1.857229        -3.773160
 H         2.068539         0.796746        -4.941076
 H         0.162836         0.281941        -3.405236
 H         2.815973         1.632448        -1.134463
 H         4.032176        -0.034207        -2.002038
 H         2.976699        -1.473553        -1.324734
 H         0.978626         0.391657         0.789831
