19
Iteration:  2129charge 0 multiplicity 1
 C         2.472846        -1.720035        -3.719009
 C         2.446404        -0.382659        -3.162343
 C         2.047305         0.775431        -4.036968
 C         1.150564         0.284939        -2.876301
 O         1.220466         1.060343        -1.708847
 C         2.459621         0.771798        -0.966285
 C         3.324360         0.049456        -1.938974
 C         2.033472         0.060629         0.325814
 O         2.567402         0.441527         1.407931
 H         3.387592        -2.119723        -4.106349
 H         2.298386        -2.454708        -2.872965
 H         1.691631        -1.817659        -4.484625
 H         2.474869         1.847785        -4.074818
 H         1.884394         0.380242        -5.096990
 H         0.211434        -0.146446        -3.135002
 H         2.770397         1.811037        -0.772475
 H         4.154607         0.738591        -2.311050
 H         3.731257        -0.847319        -1.522978
 H         1.200474        -0.748121         0.347013
