19
Iteration:  1355
 C         2.559007        -1.752265        -3.719927
 C         2.439526        -0.431807        -3.190339
 C         2.326481         0.986269        -3.850096
 C         1.142902         0.433595        -2.988408
 O         0.931418         0.866112        -1.747309
 C         2.104685         0.730680        -0.989806
 C         3.156793        -0.228614        -1.802681
 C         1.959603         0.398681         0.512988
 O         3.010421         0.361015         1.103147
 H         3.705339        -2.171629        -3.674397
 H         1.858665        -2.376567        -3.176508
 H         2.368730        -1.882015        -4.759144
 H         2.974371         1.743728        -3.324823
 H         2.082103         0.982789        -4.950899
 H         0.226250         0.183686        -3.510393
 H         2.570140         1.821672        -1.002414
 H         4.139199         0.208923        -2.101398
 H         3.289088        -1.252650        -1.347234
 H         1.073391         0.208010         1.144890
