19
Iteration:  3991charge 0 multiplicity 1
 C         2.572269        -1.709684        -3.851050
 C         2.412265        -0.398365        -3.159458
 C         2.280258         0.798688        -3.960323
 C         1.077443         0.410797        -3.017774
 O         0.961958         0.882358        -1.720154
 C         2.297067         0.934515        -0.961883
 C         3.064562        -0.234902        -1.739528
 C         2.037192         0.477803         0.473635
 O         2.953776         0.257849         1.271944
 H         3.633237        -2.091688        -3.765164
 H         1.985064        -2.503213        -3.425231
 H         2.519656        -1.615943        -4.904432
 H         2.782316         1.744924        -3.599280
 H         1.964139         0.645238        -4.971220
 H         0.144900         0.131342        -3.421575
 H         2.795114         1.894522        -1.056477
 H         4.057048         0.219585        -1.722967
 H         3.056261        -1.165166        -1.172578
 H         1.143612        -0.109756         0.467756
