19
Iteration:  2412charge 0 multiplicity 1
 C         2.564677        -1.617645        -3.956208
 C         2.522626        -0.462012        -3.079448
 C         2.245731         0.812226        -3.776014
 C         1.194327         0.250394        -2.897268
 O         0.923178         0.749087        -1.642216
 C         2.287352         0.884292        -1.089169
 C         3.158535        -0.243811        -1.722773
 C         2.073679         0.833010         0.370108
 O         2.785132         0.154912         1.151527
 H         3.579692        -1.956529        -4.090092
 H         2.089130        -2.503172        -3.361809
 H         2.177653        -1.313524        -4.964756
 H         2.724174         1.745412        -3.620779
 H         1.920653         0.694772        -4.868602
 H         0.219237        -0.168523        -3.277651
 H         2.696484         1.905340        -1.210472
 H         4.226460         0.164740        -1.766424
 H         3.019550        -1.175515        -1.134933
 H         1.076022         1.389954         0.616814
