19
Iteration:  3491charge 0 multiplicity 1
 C         2.593184        -1.739636        -3.822170
 C         2.547635        -0.315300        -3.035177
 C         2.022400         0.838830        -4.029474
 C         1.139796         0.247649        -2.888907
 O         1.098949         0.908676        -1.740349
 C         2.238144         0.972681        -0.984265
 C         3.289429        -0.039035        -1.712602
 C         2.004681         0.415670         0.409406
 O         2.789049         0.169419         1.200133
 H         3.547939        -2.161473        -4.248256
 H         2.044659        -2.632960        -3.307401
 H         1.989854        -1.550027        -4.712610
 H         2.185467         1.938961        -4.028719
 H         1.589738         0.421944        -5.049947
 H         0.375264        -0.523190        -3.062028
 H         2.890564         1.838598        -0.939948
 H         4.224400         0.541576        -1.841878
 H         3.660974        -0.989724        -1.220342
 H         0.890067         0.036530         0.474948
