19
Iteration:  1102charge 0 multiplicity 1
 C         2.675249        -1.665144        -3.998501
 C         2.393555        -0.415348        -3.084842
 C         2.105272         0.842058        -3.887267
 C         1.070356         0.254553        -2.943035
 O         1.108335         1.046507        -1.749047
 C         2.350479         0.703763        -0.960461
 C         3.152554        -0.330827        -1.737051
 C         1.949251         0.484677         0.453701
 O         2.882922         0.390005         1.280278
 H         3.814540        -1.745560        -4.395211
 H         2.332399        -2.635363        -3.544040
 H         2.164251        -1.653973        -4.940831
 H         2.439524         1.872866        -3.715833
 H         1.910253         0.844263        -4.973238
 H        -0.048604         0.040104        -3.238918
 H         2.896351         1.652447        -0.939074
 H         4.244712        -0.200758        -1.855692
 H         2.836875        -1.373258        -1.183897
 H         0.820562         0.473160         0.839747
