19
Iteration:  2295charge 0 multiplicity 1
 C         2.577190        -1.799860        -3.651870
 C         2.435393        -0.403418        -3.107673
 C         2.127556         0.831419        -3.889838
 C         1.093452         0.294792        -3.000327
 O         1.036007         1.057203        -1.803168
 C         2.320420         0.904636        -1.047498
 C         3.289244        -0.054410        -1.872980
 C         2.004176         0.305286         0.389611
 O         2.803715         0.197171         1.304894
 H         3.557935        -1.973334        -4.072119
 H         2.398920        -2.512867        -2.912047
 H         1.858208        -1.778325        -4.499005
 H         2.747167         1.694236        -3.554181
 H         2.088124         0.748829        -5.057168
 H         0.060932        -0.073190        -3.242406
 H         2.730953         1.936889        -0.979126
 H         4.140167         0.609061        -2.099240
 H         3.511776        -0.765589        -1.152023
 H         0.926139        -0.160013         0.364178
