19
Iteration:  3479charge 0 multiplicity 1
 C         2.549976        -1.714285        -3.778771
 C         2.587568        -0.297440        -3.163642
 C         1.955358         0.782365        -4.018064
 C         1.219503         0.188633        -2.914437
 O         1.066885         0.955245        -1.696267
 C         2.329878         0.954514        -0.954739
 C         3.318986         0.001557        -1.828896
 C         1.902925         0.389670         0.411827
 O         2.804217         0.148789         1.245254
 H         3.644647        -1.955277        -3.923923
 H         2.105913        -2.499090        -3.056738
 H         2.027011        -1.706716        -4.714535
 H         2.346659         1.744192        -3.861094
 H         1.747816         0.535188        -5.126824
 H         0.347868        -0.442008        -3.073225
 H         2.638258         2.007492        -0.881137
 H         4.317463         0.475167        -1.851877
 H         3.366546        -0.993690        -1.298110
 H         0.780284         0.247025         0.622325
