19
Iteration:  3124charge 0 multiplicity 1
 C         2.809163        -1.732397        -3.525970
 C         2.349186        -0.399263        -3.153701
 C         1.969877         0.808360        -4.049877
 C         1.073728         0.322242        -2.946772
 O         1.045270         0.984678        -1.647378
 C         2.347177         1.009671        -1.031483
 C         3.160572         0.043040        -1.862309
 C         2.019291         0.487242         0.409851
 O         2.860157        -0.098885         1.106580
 H         3.939197        -1.801427        -3.328305
 H         2.420477        -2.651421        -3.072852
 H         2.599938        -1.821986        -4.625100
 H         2.550952         1.746484        -3.866597
 H         1.751975         0.627504        -5.097294
 H         0.108436        -0.121398        -3.169914
 H         2.807450         2.013460        -0.857534
 H         4.226736         0.437321        -2.188363
 H         3.163846        -0.856626        -1.166547
 H         0.819652         0.517629         0.602282
