19
Iteration:  1998charge 0 multiplicity 1
 C         2.432569        -1.731114        -3.856054
 C         2.429723        -0.434934        -3.129042
 C         2.142916         0.844759        -3.894342
 C         1.120463         0.204258        -2.954587
 O         1.116268         0.970471        -1.685925
 C         2.431761         0.866126        -1.040884
 C         3.306163        -0.050595        -1.898082
 C         2.129727         0.229241         0.305240
 O         2.595818         0.442621         1.463049
 H         3.449800        -1.929503        -4.138032
 H         2.096048        -2.525022        -3.116578
 H         1.919612        -1.700625        -4.771055
 H         2.645447         1.725573        -3.601771
 H         1.928197         0.830047        -5.040415
 H         0.147504        -0.273317        -3.139472
 H         2.847199         1.853640        -1.100620
 H         4.229109         0.549753        -2.145409
 H         3.667019        -0.868494        -1.305150
 H         1.377946        -0.659939         0.205855
