19
Iteration:  4440
 C         2.558970        -1.703028        -3.935411
 C         2.455594        -0.420469        -3.165945
 C         2.220955         0.938753        -3.847904
 C         1.130044         0.338332        -2.925809
 O         1.093533         0.997430        -1.704393
 C         2.389853         0.782270        -1.026173
 C         3.038858        -0.442855        -1.727122
 C         2.061790         0.383298         0.346211
 O         2.776914         0.496524         1.300009
 H         3.549118        -1.916928        -4.410878
 H         2.462020        -2.504424        -3.199360
 H         1.693111        -1.848367        -4.637731
 H         2.416188         1.967825        -3.451352
 H         2.051272         0.706637        -4.911347
 H         0.066189        -0.026253        -3.234615
 H         3.148558         1.613288        -1.074183
 H         4.079067        -0.183933        -1.682982
 H         2.900329        -1.344029        -1.138284
 H         1.063897        -0.132319         0.257632
