19
Iteration:  3893
 C         2.395685        -1.761657        -3.849500
 C         2.460186        -0.437419        -3.123420
 C         2.218677         0.807992        -3.949665
 C         1.199210         0.315527        -2.982281
 O         1.085363         0.971807        -1.688061
 C         2.358081         0.898747        -0.978517
 C         3.259924        -0.075912        -1.869598
 C         2.019257         0.267875         0.445285
 O         2.714274         0.369588         1.373498
 H         3.313304        -1.744771        -4.561200
 H         2.567151        -2.732126        -3.343279
 H         1.604776        -1.828294        -4.595628
 H         2.762824         1.687479        -3.705630
 H         1.835789         0.826290        -5.072088
 H         0.328048        -0.140231        -3.379981
 H         2.771036         1.905394        -0.837357
 H         4.205327         0.388655        -2.235720
 H         3.487369        -1.008492        -1.289452
 H         1.023245        -0.255316         0.415854
