19
Iteration:  3509charge 0 multiplicity 1
 C         2.615325        -1.683602        -3.823839
 C         2.481874        -0.402725        -3.065711
 C         2.058026         0.786982        -3.923039
 C         1.136133         0.212588        -2.953647
 O         0.976512         0.978044        -1.708618
 C         2.315653         0.926567        -1.043496
 C         3.246889        -0.054462        -1.783274
 C         2.019305         0.338090         0.404658
 O         2.848138         0.221441         1.227301
 H         3.699703        -1.636114        -4.083667
 H         2.224364        -2.459044        -3.141016
 H         2.060183        -1.681535        -4.743195
 H         2.482570         1.703188        -3.688229
 H         2.072974         0.585863        -4.993204
 H         0.190559        -0.143446        -3.345500
 H         2.691595         1.975101        -0.911233
 H         4.249112         0.385541        -1.891254
 H         3.370798        -0.905179        -1.086082
 H         0.910568         0.236435         0.503694
