19
Iteration:  3843charge 0 multiplicity 1
 C         2.600294        -1.748551        -3.778622
 C         2.407560        -0.342266        -3.198511
 C         2.114192         0.899706        -4.038575
 C         1.120624         0.411819        -2.931636
 O         1.137593         0.964055        -1.640611
 C         2.369663         0.759892        -0.991689
 C         3.146377        -0.219610        -1.818847
 C         2.121186         0.157216         0.287959
 O         2.682546         0.511890         1.388630
 H         3.573788        -2.152224        -3.888581
 H         2.117619        -2.517297        -3.126851
 H         2.040110        -1.934104        -4.731422
 H         2.827806         1.754519        -3.872084
 H         1.912447         0.943139        -5.074611
 H         0.051750         0.205409        -3.136487
 H         2.842867         1.765343        -0.855109
 H         4.197788        -0.019495        -1.868825
 H         3.080864        -1.231323        -1.377249
 H         1.299282        -0.695936         0.266443
