19
Iteration:  1776charge 0 multiplicity 1
 C         2.729461        -1.648851        -3.914120
 C         2.504719        -0.393420        -3.141614
 C         2.151674         0.978405        -3.834625
 C         1.103324         0.318702        -3.024987
 O         0.967199         0.920908        -1.734404
 C         2.174887         0.653856        -1.033730
 C         3.011878        -0.404603        -1.675592
 C         2.040523         0.519904         0.489690
 O         2.967124         0.427775         1.178192
 H         3.734311        -1.577364        -4.100217
 H         2.616796        -2.468036        -3.194386
 H         2.109283        -1.839315        -4.765700
 H         2.631805         1.771213        -3.392502
 H         2.093566         0.767711        -4.963703
 H         0.248575        -0.119062        -3.477793
 H         2.786103         1.616238        -1.165540
 H         4.049552        -0.174991        -1.514427
 H         2.780144        -1.396673        -1.232475
 H         1.029144         0.297834         0.979918
