19
Iteration:   328
 C         2.573055        -1.748335        -3.963862
 C         2.373928        -0.397222        -3.243867
 C         2.173721         0.926965        -3.855950
 C         1.158793         0.439000        -2.889928
 O         1.213422         1.033533        -1.657605
 C         2.495350         0.634152        -0.998913
 C         3.144923        -0.428633        -1.926650
 C         2.173441         0.099782         0.464859
 O         2.398362         0.789787         1.377167
 H         2.450406        -2.525988        -3.179876
 H         1.880350        -1.973627        -4.746290
 H         3.624952        -1.827085        -4.437439
 H         2.841928         1.801507        -3.689134
 H         1.887357         0.893692        -4.958760
 H         0.074602         0.270406        -3.064640
 H         3.090953         1.495302        -0.777679
 H         4.257178        -0.426620        -2.044788
 H         2.800263        -1.509455        -1.545428
 H         1.801755        -0.917068         0.568305
