19
Iteration:  3350
 C         2.727562        -1.798490        -3.579738
 C         2.444223        -0.373198        -3.061913
 C         2.033156         0.738144        -4.028711
 C         1.096571         0.371201        -2.961491
 O         0.976167         0.953210        -1.653095
 C         2.324238         1.044731        -1.042717
 C         3.271169         0.171570        -1.886349
 C         2.041748         0.540306         0.390589
 O         2.775616        -0.203458         1.129581
 H         3.833631        -1.912493        -3.765654
 H         2.490079        -2.664547        -2.877361
 H         2.239576        -2.124319        -4.581768
 H         2.621486         1.692773        -4.064916
 H         1.703428         0.319960        -5.050255
 H         0.093619         0.077340        -3.199380
 H         2.547163         2.151492        -0.988344
 H         4.218553         0.632422        -2.085100
 H         3.532506        -0.604825        -1.128994
 H         1.049002         0.829786         0.817178
