19
Iteration:  4171charge 0 multiplicity 1
 C         2.437046        -1.684016        -3.875942
 C         2.451319        -0.346762        -3.233126
 C         2.361726         0.993518        -3.879831
 C         1.207264         0.376142        -2.997922
 O         0.964322         0.767294        -1.660738
 C         2.280076         0.692019        -1.084127
 C         3.027308        -0.351005        -1.777821
 C         2.110990         0.298339         0.426688
 O         2.858806         0.635921         1.376085
 H         3.423364        -2.037887        -3.973707
 H         1.813485        -2.395016        -3.282909
 H         2.041719        -1.732388        -4.942686
 H         2.925445         1.810542        -3.441638
 H         2.187286         1.245157        -4.858209
 H         0.337312        -0.002958        -3.435327
 H         2.911189         1.587749        -1.145443
 H         4.076786        -0.040390        -1.811787
 H         2.902375        -1.382253        -1.449607
 H         1.327552        -0.495362         0.625070
