19
Iteration:  4558
 C         2.545901        -1.729664        -3.839739
 C         2.470152        -0.366460        -3.133611
 C         2.388415         1.011015        -3.778747
 C         1.179408         0.450782        -3.034026
 O         0.952558         0.757880        -1.678359
 C         2.182374         0.720313        -1.095297
 C         2.931334        -0.420223        -1.747706
 C         2.071894         0.551436         0.445555
 O         2.961553         0.419942         1.171881
 H         3.617138        -2.058364        -3.765825
 H         1.984593        -2.441838        -3.248918
 H         2.175657        -1.759123        -4.837831
 H         2.947030         1.931376        -3.431016
 H         2.410818         0.775136        -4.891467
 H         0.142578         0.240966        -3.472117
 H         2.619875         1.694733        -1.327189
 H         4.025731        -0.155832        -1.619692
 H         2.843249        -1.406908        -1.306788
 H         1.001746         0.467265         0.863610
