19
Iteration:    50charge 0 multiplicity 1
 C         2.763006        -1.660300        -3.695146
 C         2.414716        -0.370103        -3.063965
 C         2.286052         0.927362        -3.876029
 C         1.065413         0.364017        -3.105527
 O         0.882547         0.927243        -1.803538
 C         2.113185         0.731003        -1.033090
 C         3.006524        -0.297650        -1.683674
 C         1.999916         0.455958         0.479696
 O         3.058944         0.300522         1.117912
 H         2.275605        -2.608981        -3.267680
 H         2.438346        -1.653702        -4.848154
 H         3.904812        -1.612864        -3.767990
 H         2.811466         1.746679        -3.313283
 H         2.543970         0.856388        -4.935132
 H         0.155483        -0.070840        -3.593096
 H         2.592906         1.711907        -1.096996
 H         4.117433        -0.072716        -1.537737
 H         2.893507        -1.346697        -1.227086
 H         1.038133         0.342813         0.940827
