19
Iteration:  4944
 C         2.494721        -1.818863        -3.933155
 C         2.380660        -0.435452        -3.203897
 C         2.250297         1.047122        -3.887336
 C         1.154765         0.358493        -3.014451
 O         1.075248         0.901130        -1.667080
 C         2.361986         0.786585        -1.100751
 C         3.098001        -0.376926        -1.720414
 C         2.064050         0.455946         0.430198
 O         2.794441         0.477109         1.398896
 H         3.594786        -1.989233        -4.204759
 H         2.248327        -2.642772        -3.160943
 H         1.872901        -1.884669        -4.886615
 H         3.047845         1.762822        -3.500357
 H         2.109845         1.069965        -4.968463
 H         0.158191         0.068528        -3.448078
 H         2.878251         1.730619        -1.025878
 H         4.099343        -0.080411        -1.801017
 H         2.930822        -1.415914        -1.298114
 H         1.116142        -0.126090         0.408617
