19
Iteration:  3591
 C         2.596407        -1.633202        -4.002903
 C         2.502358        -0.419971        -3.078524
 C         2.228551         0.919423        -3.788300
 C         1.142976         0.286426        -2.999992
 O         0.918860         0.766556        -1.755709
 C         2.182427         0.810806        -1.062801
 C         3.131462        -0.284438        -1.675758
 C         2.024799         0.458449         0.451244
 O         2.989449         0.473660         1.229674
 H         3.527177        -1.908432        -4.486628
 H         2.238754        -2.590898        -3.537582
 H         1.829904        -1.349998        -4.805487
 H         2.547760         1.903385        -3.199884
 H         2.261062         0.918897        -4.865736
 H         0.347280        -0.290654        -3.533266
 H         2.567269         1.819349        -0.988453
 H         4.203296        -0.180084        -1.405984
 H         2.780647        -1.083058        -0.979293
 H         1.086644         0.008293         0.759284
