19
Iteration:  2395charge 0 multiplicity 1
 C         2.653252        -1.828298        -3.880697
 C         2.438267        -0.383914        -3.117266
 C         2.209409         0.909335        -3.922705
 C         1.150976         0.339146        -2.982430
 O         0.975714         0.782454        -1.572151
 C         2.267462         0.859451        -1.068918
 C         3.141005        -0.189195        -1.750149
 C         2.015820         0.728875         0.423036
 O         2.814029         0.169583         1.219809
 H         3.718787        -1.955870        -4.169839
 H         2.176318        -2.640193        -3.408165
 H         2.179400        -1.810293        -4.861386
 H         2.955295         1.718070        -3.717956
 H         2.005721         0.900957        -4.997896
 H         0.177743         0.048706        -3.362130
 H         2.699710         1.878082        -1.310680
 H         4.173862         0.082985        -1.849658
 H         3.258279        -1.149630        -1.234485
 H         1.125823         1.198488         0.805306
