19
Iteration:  2551
 C         2.443397        -1.674201        -3.764103
 C         2.539979        -0.392133        -3.089726
 C         2.273294         0.835394        -3.978216
 C         1.162253         0.279456        -3.042235
 O         0.982404         0.848533        -1.655491
 C         2.246418         0.926258        -0.981460
 C         3.180867        -0.127592        -1.743132
 C         1.981850         0.471135         0.394278
 O         2.893078         0.240507         1.183148
 H         3.524411        -2.087322        -4.161323
 H         2.138765        -2.450540        -3.063575
 H         2.008811        -1.632542        -4.747730
 H         2.711583         1.740932        -3.733961
 H         2.130134         0.682895        -5.110550
 H         0.179288        -0.168466        -3.297175
 H         2.677139         1.962098        -1.020024
 H         4.186336         0.300411        -1.800619
 H         3.215773        -1.027896        -1.038143
 H         0.911277         0.172180         0.644522
