19
Iteration:  3756charge 0 multiplicity 1
 C         2.469628        -1.651684        -3.946961
 C         2.496290        -0.305320        -3.241590
 C         2.195781         1.034578        -3.877225
 C         1.184373         0.380688        -2.989871
 O         1.122759         0.683174        -1.623620
 C         2.406637         0.619724        -1.041463
 C         3.116401        -0.408306        -1.897395
 C         2.078204         0.309214         0.491659
 O         2.668540         0.742491         1.412300
 H         3.467610        -1.987440        -4.143871
 H         2.191000        -2.234466        -3.070605
 H         1.779702        -1.821889        -4.840160
 H         2.579079         1.997177        -3.538589
 H         2.026212         0.839216        -4.992455
 H         0.276230        -0.016676        -3.385837
 H         2.846870         1.626891        -1.087636
 H         4.191113        -0.296572        -1.945080
 H         2.918949        -1.412165        -1.490875
 H         1.321978        -0.501077         0.577247
