19
Iteration:  3204charge 0 multiplicity 1
 C         2.699576        -1.784034        -3.472997
 C         2.435859        -0.326261        -3.090442
 C         2.004220         0.846110        -4.051620
 C         1.153788         0.353725        -2.913998
 O         0.960107         0.939105        -1.687832
 C         2.260262         0.951453        -1.063460
 C         3.336524         0.136742        -1.850472
 C         2.069266         0.468787         0.357608
 O         2.774471        -0.146022         1.064204
 H         3.553477        -1.908924        -4.190548
 H         2.780537        -2.462437        -2.565822
 H         1.937729        -2.201181        -4.166139
 H         2.562295         1.704137        -4.000134
 H         1.538768         0.467467        -5.020609
 H         0.253381        -0.255742        -3.160889
 H         2.573829         2.006598        -0.885917
 H         4.280888         0.721388        -1.985641
 H         3.596170        -0.851314        -1.326569
 H         1.276851         1.058685         0.954569
