19
Iteration:  2518
 C         2.614605        -1.706931        -3.896327
 C         2.531272        -0.448238        -3.145824
 C         2.163208         0.858193        -3.851954
 C         1.128386         0.221624        -2.991784
 O         0.959730         0.998004        -1.682692
 C         2.268352         0.855633        -1.056635
 C         3.159151        -0.279784        -1.667133
 C         2.056263         0.625442         0.411171
 O         2.849318         0.219557         1.169353
 H         3.745604        -1.687400        -4.307943
 H         2.468168        -2.610189        -3.323386
 H         1.766965        -1.765726        -4.546679
 H         2.451369         1.790899        -3.424065
 H         2.017387         0.741540        -4.958152
 H         0.160364        -0.249915        -3.276369
 H         2.799324         1.843904        -0.946699
 H         4.168386         0.117681        -1.664258
 H         3.169333        -1.200927        -0.955295
 H         0.880839         0.764250         0.652247
