19
Iteration:  2877charge 0 multiplicity 1
 C         2.631491        -1.625732        -4.072976
 C         2.388684        -0.414638        -3.164458
 C         2.353858         0.997824        -3.757558
 C         1.147453         0.396727        -2.999397
 O         0.930968         0.671737        -1.617992
 C         2.188376         0.704873        -1.039585
 C         2.990922        -0.447226        -1.740129
 C         2.074827         0.390034         0.517477
 O         2.949325         0.712509         1.261547
 H         3.549527        -1.631061        -4.569311
 H         2.584152        -2.605757        -3.574826
 H         1.984482        -1.488566        -4.927453
 H         2.959588         1.815528        -3.374921
 H         2.245109         1.064169        -4.892816
 H         0.341171        -0.103624        -3.587276
 H         2.766044         1.567037        -1.312252
 H         4.043377        -0.385154        -1.747301
 H         2.685572        -1.376527        -1.278401
 H         1.073092        -0.279315         0.716322
