19
Iteration:   715charge 0 multiplicity 1
 C         2.487621        -1.648906        -4.041144
 C         2.462924        -0.452694        -3.153515
 C         2.308453         1.009246        -3.892684
 C         1.196201         0.383641        -3.017392
 O         1.040327         0.813597        -1.709666
 C         2.269837         0.607164        -1.022237
 C         3.174004        -0.455648        -1.720604
 C         1.987384         0.555470         0.498938
 O         2.766154         0.529587         1.396053
 H         1.799615        -2.410837        -3.532048
 H         2.047277        -1.459647        -5.046312
 H         3.407733        -2.259817        -4.004857
 H         3.047457         1.815500        -3.609965
 H         2.146464         0.835235        -4.954528
 H         0.330728         0.103400        -3.536715
 H         2.962382         1.507922        -0.969141
 H         4.232867        -0.174907        -1.877005
 H         3.228742        -1.363074        -1.233113
 H         0.880050         0.677538         0.631970
