19
Iteration:  1015
 C         2.377356        -1.782770        -3.681418
 C         2.566835        -0.331711        -3.141581
 C         2.335395         0.949000        -3.909637
 C         1.184286         0.472903        -3.036892
 O         0.907799         0.789005        -1.709060
 C         2.178925         0.797563        -1.047772
 C         3.193277        -0.155035        -1.777466
 C         2.004939         0.394746         0.437773
 O         2.936490         0.264477         1.177033
 H         2.914142        -1.906436        -4.707710
 H         3.147112        -2.479488        -3.223960
 H         1.498680        -2.134547        -3.303701
 H         2.843541         1.746243        -3.448139
 H         2.333233         1.038659        -5.021769
 H         0.221263         0.049240        -3.584719
 H         2.568955         1.878587        -1.063719
 H         4.076164         0.425006        -1.915952
 H         3.442504        -1.127753        -1.315631
 H         0.978707         0.252349         0.636905
