19
Iteration:  4511
 C         2.493922        -1.694755        -4.046963
 C         2.460855        -0.419633        -3.149621
 C         2.418795         0.879690        -3.820574
 C         1.208604         0.324101        -3.013489
 O         0.935542         0.800635        -1.727182
 C         2.258918         0.806203        -0.990326
 C         2.992016        -0.332243        -1.693313
 C         1.988563         0.582617         0.467659
 O         2.979780         0.430848         1.298938
 H         3.504110        -2.144539        -4.222969
 H         1.907654        -2.500002        -3.441804
 H         1.889503        -1.567212        -4.978196
 H         2.834331         1.793796        -3.329549
 H         1.921071         0.835975        -4.776077
 H         0.355345         0.134251        -3.589165
 H         2.717692         1.798127        -1.047949
 H         4.147872        -0.166637        -1.765890
 H         2.951560        -1.349781        -1.164267
 H         0.898078         0.450317         0.788189
