19
Iteration:  2633charge 0 multiplicity 1
 C         2.520791        -1.719623        -3.814363
 C         2.500219        -0.418118        -3.083319
 C         2.172398         0.797877        -3.991427
 C         1.110646         0.287897        -2.932395
 O         1.075456         1.032812        -1.752770
 C         2.283925         0.935215        -0.989964
 C         3.179841        -0.130293        -1.704989
 C         2.084596         0.285986         0.344794
 O         2.791752         0.308850         1.271796
 H         3.524140        -1.847373        -4.182510
 H         2.133728        -2.613011        -3.200115
 H         1.744209        -1.641057        -4.620337
 H         2.554818         1.845011        -3.876919
 H         2.050357         0.632916        -5.089751
 H         0.165272        -0.251182        -3.132835
 H         2.675483         1.953719        -0.874039
 H         4.256926         0.135838        -1.780311
 H         3.169205        -0.941798        -0.991176
 H         1.250475        -0.462194         0.164044
