19
Iteration:   433
 C         2.681714        -1.760827        -3.789149
 C         2.437724        -0.369454        -3.151699
 C         2.421664         0.954533        -3.909112
 C         1.177550         0.424765        -3.100361
 O         0.898624         0.952180        -1.678330
 C         2.118632         0.740180        -1.021509
 C         2.936570        -0.270501        -1.648610
 C         1.959535         0.518766         0.467094
 O         2.999007         0.239475         1.100647
 H         2.406948        -2.422582        -2.908670
 H         2.077535        -2.177962        -4.701440
 H         3.740765        -2.070448        -3.827688
 H         3.170212         1.666899        -3.626577
 H         2.297804         0.602923        -4.943183
 H         0.160730         0.086767        -3.511728
 H         2.707464         1.741552        -1.001563
 H         3.997657        -0.030855        -1.463029
 H         2.823681        -1.288025        -1.234550
 H         1.077232         0.718141         0.951303
