19
Iteration:  4270
 C         2.496476        -1.718649        -3.948364
 C         2.443131        -0.404173        -3.253778
 C         2.117250         0.899083        -3.885100
 C         1.128836         0.366414        -2.879201
 O         1.231625         1.009797        -1.640076
 C         2.505276         0.704784        -1.012226
 C         3.190607        -0.395085        -1.879224
 C         2.013553         0.257059         0.424919
 O         2.623433         0.632796         1.369108
 H         3.410522        -1.767071        -4.536400
 H         2.610365        -2.526824        -3.160053
 H         1.717595        -1.963744        -4.746719
 H         2.627843         1.848530        -3.760191
 H         1.704794         0.786283        -4.891359
 H         0.067973        -0.011940        -3.204505
 H         2.944144         1.700371        -0.666282
 H         4.302813        -0.314331        -1.806092
 H         2.726704        -1.287099        -1.440122
 H         1.095755        -0.503656         0.408090
