19
Iteration:  2495charge 0 multiplicity 1
 C         2.768559        -1.696685        -3.862841
 C         2.340874        -0.512974        -3.147257
 C         2.177883         0.922049        -3.900392
 C         1.076835         0.328654        -2.996603
 O         1.022933         0.863861        -1.697849
 C         2.289218         0.803508        -1.094214
 C         3.058111        -0.294579        -1.817731
 C         2.064089         0.713387         0.496021
 O         2.841405         0.193311         1.291821
 H         3.903090        -1.463692        -4.195553
 H         2.896991        -2.589158        -3.289761
 H         2.032760        -2.021883        -4.558259
 H         2.778392         1.816244        -3.568989
 H         1.831349         0.705615        -4.894893
 H        -0.001957         0.214217        -3.198751
 H         2.806147         1.823084        -1.161331
 H         4.107496        -0.109215        -1.874213
 H         2.886656        -1.215614        -1.148632
 H         1.244967         1.492892         0.920325
