19
Iteration:   570charge 0 multiplicity 1
 C         2.480391        -1.711749        -4.014725
 C         2.523132        -0.424052        -3.194107
 C         2.179617         0.937536        -3.859032
 C         1.162195         0.326339        -2.980866
 O         1.108098         0.821480        -1.659746
 C         2.478363         0.735758        -0.982549
 C         3.271942        -0.326026        -1.758131
 C         1.932244         0.643739         0.388443
 O         2.602372         0.349511         1.415268
 H         2.154705        -2.609035        -3.447689
 H         1.715663        -1.617358        -4.749661
 H         3.587485        -1.892684        -4.500828
 H         2.870350         1.724800        -3.646567
 H         2.039421         0.873917        -4.925404
 H         0.135282        -0.076529        -3.318132
 H         2.993980         1.747159        -1.091851
 H         4.329293        -0.098786        -1.897207
 H         3.292607        -1.285890        -1.370750
 H         0.802898         1.055109         0.342529
