19
Iteration:  4820charge 0 multiplicity 1
 C         2.439285        -1.744698        -3.935553
 C         2.459609        -0.458158        -3.140501
 C         2.188561         0.848636        -3.983700
 C         1.194263         0.323997        -2.978110
 O         1.169576         1.052118        -1.665695
 C         2.446039         0.825262        -0.985803
 C         3.162383        -0.294894        -1.822289
 C         2.028247         0.302884         0.376509
 O         2.630549         0.516742         1.442968
 H         3.362823        -1.821352        -4.629531
 H         2.396908        -2.508433        -3.140615
 H         1.525909        -1.772460        -4.614948
 H         2.581197         1.759819        -3.597544
 H         1.926730         0.818492        -4.990889
 H         0.257557        -0.099650        -3.047245
 H         3.122813         1.705341        -0.860142
 H         4.282740        -0.194050        -1.895978
 H         3.045508        -1.354374        -1.529986
 H         1.301131        -0.517725         0.172087
