19
Iteration:  1106
 C         2.666382        -1.664317        -3.973597
 C         2.418446        -0.423857        -3.140228
 C         2.073849         0.868962        -3.859490
 C         1.070883         0.268634        -2.923439
 O         1.097298         1.033429        -1.757275
 C         2.351435         0.698565        -0.977514
 C         3.167046        -0.372227        -1.735658
 C         1.947069         0.462712         0.443184
 O         2.875922         0.412120         1.290409
 H         3.800491        -1.823640        -4.186075
 H         2.274215        -2.594104        -3.568774
 H         2.162790        -1.646903        -4.977332
 H         2.357512         1.989075        -3.715451
 H         1.945155         0.868290        -4.926413
 H         0.163572         0.009922        -3.275602
 H         3.004929         1.653721        -0.884650
 H         4.249399        -0.236287        -1.873097
 H         2.899510        -1.249044        -1.288826
 H         0.858757         0.579623         0.829693
