19
Iteration:  1424charge 0 multiplicity 1
 C         2.667742        -1.804875        -3.763417
 C         2.417427        -0.404325        -3.101585
 C         2.079849         0.924013        -4.010786
 C         1.126186         0.354978        -2.909036
 O         1.074537         1.068501        -1.701063
 C         2.286558         0.878804        -0.990176
 C         3.214106        -0.220787        -1.836760
 C         1.944773         0.299642         0.371938
 O         2.831887         0.291340         1.250162
 H         3.652917        -1.772383        -4.292451
 H         2.718117        -2.633778        -3.022903
 H         1.987169        -2.183024        -4.618705
 H         2.561100         1.749090        -3.605151
 H         1.847827         0.708700        -5.021874
 H         0.131073        -0.044695        -3.202054
 H         2.858754         1.829058        -0.854111
 H         4.154336         0.288689        -2.038223
 H         3.464425        -1.090730        -1.135036
 H         0.906021        -0.191677         0.541379
