19
Iteration:  3069
 C         2.601014        -1.736997        -3.814117
 C         2.480408        -0.422605        -3.076591
 C         2.080428         0.862545        -3.884512
 C         1.158601         0.198452        -2.905315
 O         1.063926         0.934375        -1.790129
 C         2.215372         0.896316        -1.028993
 C         3.225218         0.030169        -1.701380
 C         1.967176         0.495219         0.473510
 O         2.880564         0.062111         1.096452
 H         3.457143        -1.598730        -4.507204
 H         2.591518        -2.534508        -3.100570
 H         1.740493        -1.966789        -4.484392
 H         2.357509         1.827966        -3.595615
 H         1.951604         0.750265        -4.999531
 H         0.190119        -0.230128        -3.238463
 H         2.609522         1.903844        -0.863750
 H         4.147147         0.634890        -1.985428
 H         3.758126        -0.631507        -1.014916
 H         0.974671         0.748622         0.790710
