19
Iteration:  4843
 C         2.486458        -1.751515        -3.843499
 C         2.405482        -0.431428        -3.081588
 C         2.211535         0.903991        -3.981807
 C         1.151981         0.485745        -2.972507
 O         1.086663         0.912781        -1.641221
 C         2.499814         0.847931        -1.152938
 C         3.162845        -0.279619        -1.807141
 C         2.146440         0.246814         0.392643
 O         2.593848         0.497670         1.445806
 H         3.462534        -1.967874        -4.432168
 H         2.281208        -2.572941        -3.133355
 H         1.653077        -1.804116        -4.648741
 H         2.950662         1.634700        -4.034384
 H         1.996424         0.507212        -4.933991
 H         0.095262         0.409386        -3.279515
 H         3.006853         1.794767        -1.121635
 H         4.232972        -0.288606        -1.980529
 H         2.980230        -1.293741        -1.399818
 H         1.301049        -0.496979         0.126389
