19
Iteration:   227
 C         2.359965        -1.674104        -4.017633
 C         2.421081        -0.372765        -3.231980
 C         2.289964         1.043572        -3.807194
 C         1.191517         0.460402        -2.925307
 O         1.213687         0.636866        -1.479837
 C         2.572279         0.534173        -0.999199
 C         3.207807        -0.483522        -1.972323
 C         2.262304         0.170161         0.419017
 O         2.224095         1.034435         1.327266
 H         2.027964        -2.438294        -3.463504
 H         1.882331        -1.531820        -4.956835
 H         3.419747        -1.976939        -4.231333
 H         2.885893         1.901279        -3.550062
 H         2.167448         1.108414        -4.884284
 H         0.177204         0.095765        -3.069708
 H         3.061391         1.475838        -1.050382
 H         4.255670        -0.256955        -2.230512
 H         3.096043        -1.582363        -1.600255
 H         1.975328        -0.914547         0.565050
