19
Iteration:  1325
 C         2.547251        -1.711990        -3.936271
 C         2.460654        -0.374829        -3.207835
 C         2.301443         0.941256        -3.828647
 C         1.145813         0.406640        -2.997310
 O         0.945254         0.710370        -1.660970
 C         2.243981         0.750284        -1.058860
 C         3.071479        -0.276899        -1.784652
 C         2.087647         0.511353         0.433100
 O         2.900601         0.447208         1.319715
 H         3.544849        -2.210718        -4.090954
 H         1.997096        -2.460318        -3.372222
 H         2.104451        -1.680592        -4.998373
 H         2.970727         1.745322        -3.401689
 H         2.176900         0.875716        -4.861842
 H         0.083810         0.176054        -3.414010
 H         2.717949         1.727846        -1.164965
 H         4.173094        -0.182356        -1.713816
 H         2.983374        -1.284269        -1.095426
 H         1.041605         0.561093         0.799763
