19
Iteration:  4655
 C         2.456584        -1.763516        -3.960856
 C         2.434992        -0.418304        -3.174774
 C         2.260396         0.911681        -3.924358
 C         1.158897         0.397558        -3.003578
 O         1.024410         0.901363        -1.711775
 C         2.433090         0.811511        -1.032749
 C         3.160396        -0.327705        -1.801403
 C         2.088119         0.389694         0.447215
 O         2.726175         0.478921         1.453081
 H         3.545491        -1.759206        -4.361432
 H         2.344636        -2.588183        -3.163064
 H         1.729861        -1.946873        -4.781583
 H         2.710602         1.831613        -3.579605
 H         1.971807         0.788002        -5.026014
 H         0.191251         0.068303        -3.471105
 H         2.959514         1.756896        -1.121397
 H         4.322596        -0.409369        -1.755608
 H         2.865363        -1.224733        -1.172572
 H         1.065745         0.134453         0.642790
