19
Iteration:  2979
 C         2.706263        -1.662831        -3.883837
 C         2.445309        -0.369991        -3.134034
 C         2.142850         0.902299        -3.924997
 C         1.059400         0.294258        -3.024401
 O         0.985195         0.846414        -1.722703
 C         2.263835         0.767337        -0.986852
 C         3.063867        -0.232555        -1.789825
 C         2.056914         0.449491         0.506801
 O         2.943924         0.350610         1.287969
 H         3.771072        -1.899871        -3.899422
 H         2.097599        -2.472783        -3.627393
 H         2.473330        -1.587417        -4.925899
 H         2.499783         1.912600        -3.595573
 H         2.108334         0.879284        -4.969166
 H         0.142902        -0.148237        -3.372996
 H         2.618088         1.776502        -1.025044
 H         4.162053         0.017798        -1.740058
 H         3.084051        -1.082019        -1.202020
 H         0.942844         0.411254         0.819892
