19
Iteration:   358
 C         2.458504        -1.684739        -3.992761
 C         2.457865        -0.422753        -3.194895
 C         2.200495         0.894326        -3.977348
 C         1.162831         0.393967        -3.013265
 O         1.165386         0.919897        -1.716493
 C         2.435108         0.669857        -0.949764
 C         3.251267        -0.340850        -1.792041
 C         2.040373         0.242087         0.445683
 O         2.567545         0.674510         1.506539
 H         1.960709        -2.449822        -3.471483
 H         1.756045        -1.675954        -4.882721
 H         3.555537        -1.958330        -4.327364
 H         2.727203         1.833798        -3.747247
 H         1.988665         0.611263        -5.004076
 H         0.047876         0.169718        -3.129548
 H         2.996638         1.609633        -0.872513
 H         4.256766        -0.059721        -2.002258
 H         3.350462        -1.329662        -1.422604
 H         1.180736        -0.531490         0.581194
