19
Iteration:  2948
 C         2.641500        -1.636583        -4.071855
 C         2.490281        -0.485568        -3.066100
 C         2.280395         0.894752        -3.766371
 C         1.103363         0.295989        -2.891669
 O         0.914287         0.773813        -1.617203
 C         2.207704         0.830737        -1.071544
 C         3.031995        -0.271286        -1.746614
 C         2.022555         0.479710         0.370869
 O         2.981893         0.450018         1.216557
 H         3.689232        -2.162687        -4.030630
 H         1.935756        -2.449938        -3.941198
 H         2.664708        -1.131579        -5.053991
 H         2.880274         1.767623        -3.455195
 H         2.018825         0.888424        -4.773178
 H         0.261482        -0.153901        -3.370615
 H         2.550172         1.892843        -1.121830
 H         4.110308         0.104788        -1.616972
 H         2.967589        -1.167788        -1.103177
 H         0.875595         0.273519         0.461201
