19
Iteration:  2302charge 0 multiplicity 1
 C         2.564056        -1.766444        -3.710445
 C         2.451251        -0.429493        -3.047485
 C         2.200555         0.805063        -3.877973
 C         1.060106         0.275495        -2.981471
 O         0.968305         1.088218        -1.810403
 C         2.339497         0.934918        -1.033843
 C         3.274052        -0.043115        -1.831008
 C         1.990661         0.319727         0.334411
 O         2.819934         0.187973         1.281619
 H         3.512774        -1.913248        -4.217403
 H         2.241507        -2.601924        -2.956631
 H         1.921358        -1.951568        -4.584798
 H         2.629236         1.868842        -3.726686
 H         2.087092         0.681111        -4.923375
 H         0.190247        -0.290108        -3.255924
 H         2.883624         1.884493        -0.948438
 H         4.256351         0.497894        -1.999930
 H         3.656925        -0.807726        -1.080127
 H         1.068212        -0.199385         0.584084
