19
Iteration:  2475
 C         2.798768        -1.689542        -3.908117
 C         2.383586        -0.397770        -3.162722
 C         2.183138         0.872910        -3.983799
 C         1.045170         0.432581        -2.988388
 O         0.920062         0.760733        -1.606111
 C         2.352262         0.798402        -1.003662
 C         3.007405        -0.336558        -1.760426
 C         2.201609         0.840618         0.441846
 O         2.778263         0.168358         1.301719
 H         3.904681        -1.648037        -4.104090
 H         2.922023        -2.552745        -3.242536
 H         2.218165        -2.077567        -4.733378
 H         2.806872         1.624463        -3.690375
 H         1.884653         0.648763        -5.009997
 H         0.072317         0.048343        -3.371027
 H         2.786192         1.675935        -1.482285
 H         4.080875        -0.135773        -1.873346
 H         2.765662        -1.389718        -1.355656
 H         1.339678         1.426108         0.782802
