19
Iteration:  2325charge 0 multiplicity 1
 C         2.583041        -1.707082        -3.754579
 C         2.501546        -0.446283        -3.032436
 C         2.169011         0.726732        -3.954364
 C         1.156048         0.293337        -2.913825
 O         1.072745         1.029112        -1.728652
 C         2.204300         0.975545        -0.995443
 C         3.180004        -0.072246        -1.729528
 C         1.951396         0.335973         0.340495
 O         2.857795         0.217628         1.119949
 H         3.466302        -1.758298        -4.310210
 H         2.254476        -2.664849        -3.216933
 H         1.878215        -1.597225        -4.616464
 H         2.845349         1.638571        -3.893312
 H         2.026477         0.511411        -5.047502
 H         0.151926        -0.061387        -3.160405
 H         2.687737         1.968867        -0.863978
 H         4.206796         0.374799        -1.624305
 H         3.304693        -0.800877        -0.961464
 H         0.973205        -0.092203         0.565379
