19
Iteration:  4548
 C         2.495515        -1.648362        -3.798875
 C         2.430257        -0.370349        -3.108636
 C         2.406054         0.999648        -3.690290
 C         1.178958         0.387104        -3.066901
 O         0.902163         0.767068        -1.725178
 C         2.247267         0.698672        -1.056060
 C         3.050269        -0.452480        -1.711512
 C         1.994742         0.545199         0.353221
 O         2.996993         0.430748         1.157796
 H         3.532916        -2.030036        -3.778127
 H         1.914555        -2.298717        -3.219457
 H         2.186883        -1.679888        -4.809680
 H         2.904983         1.961029        -3.536844
 H         2.037914         1.121254        -4.753111
 H         0.309988         0.017723        -3.736909
 H         2.907622         1.581597        -1.245844
 H         4.123036        -0.244383        -1.747861
 H         2.788943        -1.355662        -1.220981
 H         0.898767         0.585511         0.732884
