19
Iteration:   366charge 0 multiplicity 1
 C         2.429590        -1.697676        -4.019388
 C         2.483013        -0.427407        -3.165890
 C         2.198944         0.870005        -3.917301
 C         1.207647         0.412006        -2.947080
 O         1.135597         0.882605        -1.715917
 C         2.404385         0.739816        -0.985505
 C         3.290516        -0.326103        -1.844202
 C         1.996751         0.295508         0.484951
 O         2.600005         0.614482         1.461331
 H         2.034781        -2.521825        -3.375948
 H         1.893525        -1.383706        -4.976137
 H         3.322149        -2.172114        -4.307541
 H         2.771879         1.796072        -3.869961
 H         1.997435         0.564905        -4.898115
 H         0.252358         0.071440        -3.432917
 H         2.833418         1.792276        -0.891418
 H         4.377596        -0.076585        -1.988430
 H         3.193973        -1.208431        -1.208192
 H         1.048659        -0.459293         0.425496
