19
Iteration:  2196charge 0 multiplicity 1
 C         2.550050        -1.764477        -3.729238
 C         2.409051        -0.400191        -2.991816
 C         2.064445         0.763765        -3.985872
 C         1.154509         0.311818        -2.830718
 O         1.092791         1.121803        -1.689089
 C         2.424342         0.913649        -1.025797
 C         3.311504        -0.040937        -1.841793
 C         2.069008         0.093971         0.214237
 O         2.602928         0.349665         1.214314
 H         3.574640        -1.867478        -4.086744
 H         2.382735        -2.594199        -3.037289
 H         1.685932        -1.746442        -4.447244
 H         2.842302         1.680291        -3.829303
 H         1.906075         0.389697        -5.000779
 H         0.124718         0.036951        -3.043056
 H         2.986634         1.843265        -0.704404
 H         4.257674         0.559247        -2.175850
 H         3.605482        -0.885790        -1.243096
 H         1.325566        -0.742560         0.115803
