19
Iteration:  3025
 C         2.659545        -1.714152        -3.815514
 C         2.440305        -0.383053        -3.086762
 C         2.110865         0.909708        -3.934751
 C         1.119618         0.320047        -3.004462
 O         1.038347         0.808853        -1.615563
 C         2.280590         0.902346        -1.033088
 C         3.155629        -0.072463        -1.792920
 C         1.992222         0.472897         0.377915
 O         2.860314         0.189205         1.250267
 H         3.599719        -1.662914        -4.418158
 H         2.597175        -2.509963        -3.116251
 H         1.884805        -2.144715        -4.459555
 H         2.750870         1.736442        -3.910840
 H         1.891529         0.696157        -5.019420
 H         0.143536        -0.069172        -3.362859
 H         2.739737         1.891479        -1.004029
 H         4.222450         0.208951        -1.958329
 H         3.416152        -1.024101        -1.345053
 H         0.895244         0.419439         0.579466
