19
Iteration:  2959
 C         2.666593        -1.634682        -4.071791
 C         2.432909        -0.447747        -3.103609
 C         2.185552         0.849873        -3.819490
 C         1.182597         0.313930        -2.927575
 O         0.885982         0.789693        -1.623625
 C         2.199343         0.902883        -0.996883
 C         3.122983        -0.298991        -1.661313
 C         2.062130         0.516243         0.398791
 O         2.923368         0.397810         1.188176
 H         3.739624        -2.018433        -3.887531
 H         1.951904        -2.454293        -4.032573
 H         2.561700        -1.337497        -5.133922
 H         2.789000         1.710778        -3.556815
 H         2.111824         0.698597        -4.856258
 H         0.227900         0.045466        -3.341783
 H         2.719720         1.848790        -1.238291
 H         4.209190         0.034185        -1.792198
 H         3.089840        -1.237535        -1.082618
 H         1.045992         0.030671         0.737031
