19
Iteration:  3719
 C         2.586845        -1.635657        -4.195184
 C         2.377451        -0.459494        -3.149473
 C         2.355891         0.887177        -3.731835
 C         1.171919         0.392692        -2.929482
 O         1.002719         0.761993        -1.627202
 C         2.227182         0.709908        -1.031312
 C         3.058191        -0.428577        -1.816047
 C         2.156759         0.293362         0.498595
 O         2.740861         0.815223         1.355582
 H         3.495272        -1.759550        -4.894882
 H         2.392029        -2.567259        -3.560664
 H         1.794135        -1.781081        -4.935194
 H         2.852321         1.828461        -3.372979
 H         2.186980         0.943009        -4.816755
 H         0.186246         0.195326        -3.423503
 H         2.909856         1.623592        -1.043447
 H         4.075362        -0.069521        -2.082223
 H         3.020132        -1.356996        -1.194050
 H         1.599707        -0.653250         0.598113
