19
Iteration:   261charge 0 multiplicity 1
 C         2.212691        -1.711719        -4.177866
 C         2.512838        -0.463610        -3.177580
 C         2.198733         1.032670        -3.862984
 C         1.298149         0.376889        -2.857267
 O         1.240034         0.768131        -1.554830
 C         2.568744         0.585056        -0.922451
 C         3.370008        -0.431849        -1.953425
 C         2.203342         0.144274         0.479499
 O         2.174828         1.034352         1.384077
 H         1.703148        -2.489116        -3.783183
 H         1.545080        -1.474406        -5.010525
 H         3.184914        -1.943842        -4.710571
 H         2.793984         1.935599        -3.473127
 H         1.940404         0.912586        -4.892983
 H         0.497116        -0.292165        -3.350851
 H         3.009533         1.539522        -0.930214
 H         4.383293        -0.047589        -2.082787
 H         3.562399        -1.561609        -1.530489
 H         1.982917        -1.038710         0.836257
