19
Iteration:  4508
 C         2.511914        -1.689739        -4.040816
 C         2.445175        -0.429920        -3.142159
 C         2.402651         0.860215        -3.856793
 C         1.219619         0.324133        -3.011423
 O         0.910263         0.808512        -1.735933
 C         2.285589         0.804884        -0.970950
 C         3.012017        -0.334807        -1.702099
 C         2.007657         0.576147         0.481801
 O         2.966281         0.432688         1.319728
 H         3.498723        -2.077294        -4.257835
 H         1.948556        -2.510614        -3.475551
 H         1.873544        -1.495380        -4.977275
 H         2.910287         1.666053        -3.442743
 H         1.956027         0.955875        -4.832512
 H         0.298110         0.230816        -3.577179
 H         2.622318         1.857860        -1.069774
 H         4.061546        -0.199506        -1.786992
 H         2.872841        -1.329236        -1.192712
 H         0.950697         0.449353         0.843861
