19
Iteration:   768
 C         2.590547        -1.626317        -4.112109
 C         2.421539        -0.472231        -3.127004
 C         2.264312         0.855904        -3.854167
 C         1.155666         0.442075        -2.969796
 O         1.126777         0.903659        -1.634853
 C         2.416047         0.615259        -1.038676
 C         2.999659        -0.556037        -1.716850
 C         2.034512         0.503510         0.413311
 O         2.678069         0.634891         1.394438
 H         2.889441        -2.518745        -3.655420
 H         1.813391        -1.605645        -4.794340
 H         3.452477        -1.359491        -4.892868
 H         2.615848         1.828536        -3.389578
 H         2.266832         1.007501        -4.943341
 H         0.180637         0.174402        -3.287243
 H         3.234655         1.370385        -1.070589
 H         4.150649        -0.462574        -1.650648
 H         2.593971        -1.549149        -1.335207
 H         0.960731         0.098487         0.400720
