19
Iteration:   401charge 0 multiplicity 1
 C         2.466956        -1.751230        -3.874222
 C         2.454492        -0.404562        -3.090620
 C         2.347010         0.946913        -3.807582
 C         1.151348         0.340926        -3.055045
 O         1.019808         0.829872        -1.731946
 C         2.309029         0.833284        -1.081831
 C         3.172898        -0.262015        -1.766468
 C         1.992898         0.466054         0.408487
 O         2.804708         0.370122         1.321118
 H         1.861086        -2.403196        -3.292057
 H         1.838648        -1.827649        -4.825411
 H         3.530182        -2.073346        -4.087966
 H         2.859033         1.802247        -3.377464
 H         2.442210         0.915534        -4.893223
 H         0.231149         0.008897        -3.633865
 H         2.705374         1.887268        -1.086621
 H         4.184327         0.081886        -1.851017
 H         3.181791        -1.091191        -1.127738
 H         0.865429         0.204976         0.617364
