19
Iteration:   776charge 0 multiplicity 1
 C         2.631245        -1.591276        -4.102963
 C         2.399779        -0.451028        -3.089974
 C         2.307029         0.869486        -3.822866
 C         1.162850         0.391620        -3.009890
 O         1.115043         0.957934        -1.620586
 C         2.399756         0.629945        -0.987696
 C         2.978470        -0.566976        -1.778833
 C         1.968888         0.406323         0.402330
 O         2.732303         0.669781         1.340109
 H         2.753895        -2.529131        -3.598076
 H         1.680504        -1.744255        -4.649990
 H         3.374033        -1.386067        -4.884803
 H         2.861134         1.701732        -3.417286
 H         2.309576         0.866365        -4.870873
 H         0.191307         0.088339        -3.284678
 H         2.997176         1.514345        -0.989109
 H         4.088059        -0.525989        -1.795675
 H         2.618915        -1.540305        -1.241275
 H         1.017700         0.005927         0.565683
