19
Iteration:  2271
 C         2.584845        -1.846762        -3.590071
 C         2.414822        -0.328205        -3.223410
 C         2.124808         0.887630        -4.097816
 C         1.164641         0.400795        -2.978288
 O         1.063766         0.981766        -1.655985
 C         2.399298         0.808120        -0.956173
 C         3.259730        -0.046728        -1.938497
 C         1.978822         0.259124         0.402417
 O         2.726801         0.254057         1.295180
 H         3.598818        -1.974820        -3.795528
 H         2.485859        -2.424347        -2.643345
 H         1.935285        -2.135049        -4.432138
 H         2.701227         1.922713        -4.183784
 H         1.585422         0.611935        -5.022734
 H         0.237712        -0.115827        -3.136679
 H         2.932008         1.774393        -0.797519
 H         4.143670         0.632525        -2.067253
 H         3.417642        -0.861471        -1.315606
 H         0.815163        -0.071584         0.407601
