19
Iteration:  2010
 C         2.462295        -1.762598        -3.858301
 C         2.490103        -0.415452        -3.113213
 C         2.090011         0.797760        -3.876499
 C         1.110783         0.286011        -2.915121
 O         1.143873         1.009999        -1.757831
 C         2.365485         0.788045        -1.031353
 C         3.360031        -0.020667        -1.949728
 C         2.107699         0.155942         0.373733
 O         2.603842         0.496115         1.456044
 H         3.414407        -2.215391        -4.210717
 H         2.010167        -2.629908        -3.322250
 H         1.709203        -1.598307        -4.646698
 H         2.358617         1.661080        -3.389658
 H         2.085879         0.827722        -5.056718
 H         0.189315        -0.177555        -3.198802
 H         2.798739         1.749961        -0.627109
 H         4.154087         0.657203        -2.415017
 H         3.798456        -0.875898        -1.462045
 H         1.305846        -0.697267         0.269921
