19
Iteration:  1139charge 0 multiplicity 1
 C         2.547269        -1.689112        -3.908771
 C         2.423544        -0.354890        -3.247074
 C         2.188420         0.972376        -3.943018
 C         1.124137         0.336706        -2.973179
 O         1.012453         0.727255        -1.632041
 C         2.409313         0.794625        -1.044351
 C         3.119944        -0.324964        -1.799065
 C         2.078446         0.443609         0.415991
 O         2.829064         0.492051         1.416397
 H         3.526026        -2.183411        -3.575141
 H         1.742935        -2.342649        -3.553941
 H         2.553653        -1.543578        -5.045334
 H         2.631025         1.925293        -3.557137
 H         1.909674         0.797508        -4.991721
 H         0.234291         0.062853        -3.413376
 H         2.903466         1.836022        -1.105574
 H         4.226112        -0.363378        -1.790460
 H         2.820353        -1.235502        -1.356532
 H         0.924244         0.138685         0.499722
