19
Iteration:  3892
 C         2.397268        -1.757380        -3.845759
 C         2.460316        -0.432333        -3.131253
 C         2.210942         0.804861        -3.946333
 C         1.198525         0.311929        -2.990952
 O         1.087533         0.975561        -1.683845
 C         2.369464         0.890368        -0.988854
 C         3.255907        -0.077502        -1.859696
 C         2.019228         0.262394         0.451165
 O         2.713664         0.373899         1.369804
 H         3.321867        -1.757910        -4.561512
 H         2.547322        -2.709163        -3.323251
 H         1.598670        -1.839741        -4.569511
 H         2.754415         1.679127        -3.683646
 H         1.841828         0.865641        -5.071843
 H         0.324682        -0.154603        -3.413817
 H         2.772819         1.888500        -0.845446
 H         4.213237         0.409663        -2.207062
 H         3.498107        -0.991375        -1.288218
 H         0.993662        -0.266860         0.399039
