19
Iteration:   482
 C         2.758563        -1.694132        -3.851021
 C         2.462400        -0.431887        -3.038226
 C         2.363691         0.860425        -3.762268
 C         1.105346         0.333415        -3.068624
 O         0.908317         0.978992        -1.703267
 C         2.171857         0.855161        -1.080592
 C         2.916696        -0.401076        -1.631545
 C         2.067415         0.714516         0.409940
 O         2.902717         0.138220         1.046238
 H         2.554618        -2.636364        -3.370004
 H         2.249983        -1.573121        -4.755642
 H         3.907113        -1.861351        -4.038211
 H         2.440134         1.792583        -3.185330
 H         2.557584         0.765199        -4.801141
 H         0.121298         0.083018        -3.482458
 H         2.733047         1.827270        -1.122165
 H         4.003293        -0.261607        -1.592974
 H         2.693674        -1.325245        -1.122528
 H         1.232371         1.210055         0.901674
