19
Iteration:  2846
 C         2.598643        -1.559432        -4.184974
 C         2.440644        -0.467262        -3.100432
 C         2.290103         0.842787        -3.657823
 C         1.099240         0.284086        -2.952868
 O         0.979441         0.872183        -1.660551
 C         2.254497         0.731428        -1.052991
 C         3.068380        -0.465303        -1.742090
 C         2.109963         0.312039         0.436882
 O         2.824173         0.762381         1.304452
 H         3.581435        -1.403853        -4.771105
 H         2.475679        -2.605214        -3.840131
 H         1.722213        -1.439004        -4.833437
 H         2.716295         1.666914        -3.110218
 H         2.450765         0.953129        -4.794364
 H         0.216689        -0.276525        -3.403359
 H         2.836894         1.654038        -1.247531
 H         4.168978        -0.272628        -1.838744
 H         2.840576        -1.371324        -1.225955
 H         1.416660        -0.447064         0.483368
