19
Iteration:  3221
 C         2.787019        -1.796464        -3.453489
 C         2.413111        -0.360981        -3.107548
 C         2.011338         0.853588        -3.956355
 C         1.044330         0.290645        -2.954713
 O         0.996673         1.005826        -1.694530
 C         2.328633         0.947056        -1.074550
 C         3.222834         0.083572        -1.935391
 C         2.067370         0.554170         0.421490
 O         2.782317        -0.201815         1.067348
 H         3.700608        -1.956686        -4.078413
 H         3.209683        -2.224398        -2.577026
 H         1.942915        -2.413664        -3.808096
 H         2.484917         1.881669        -3.657291
 H         1.866425         0.812266        -4.991230
 H         0.099062        -0.004315        -3.338844
 H         2.833199         1.940594        -1.078252
 H         3.984399         0.774841        -2.393604
 H         3.548487        -0.736314        -1.306748
 H         0.990489         0.924165         0.642399
