19
Iteration:  2649
 C         2.506684        -1.743258        -3.918425
 C         2.438336        -0.386471        -3.052834
 C         2.120681         0.757092        -3.887825
 C         1.176017         0.203312        -2.934554
 O         1.095221         1.103954        -1.763078
 C         2.352346         0.949108        -1.040241
 C         3.197950        -0.100169        -1.765500
 C         2.081717         0.236224         0.382765
 O         2.735503         0.356920         1.342861
 H         3.361355        -1.889755        -4.652601
 H         2.376520        -2.620937        -3.374828
 H         1.744769        -1.780123        -4.667379
 H         2.489558         1.732669        -3.596399
 H         2.209035         0.507745        -4.962538
 H         0.239409        -0.273978        -3.141674
 H         2.863087         1.925161        -0.905656
 H         4.225844         0.265785        -1.771731
 H         3.310411        -1.139344        -1.362712
 H         1.029758        -0.341738         0.422784
