19
Iteration:  2085charge 0 multiplicity 1
 C         2.558909        -1.837801        -3.747108
 C         2.426488        -0.426299        -3.126322
 C         2.039740         0.842286        -3.897621
 C         1.098117         0.261648        -2.865564
 O         1.202346         1.090606        -1.670629
 C         2.398849         0.980474        -1.032820
 C         3.247267        -0.064646        -1.942904
 C         2.235802         0.153676         0.247717
 O         2.483824         0.377530         1.372816
 H         3.419007        -2.158046        -4.301516
 H         2.515377        -2.695514        -3.010489
 H         1.798075        -1.898606        -4.500526
 H         2.644574         1.702503        -3.670937
 H         1.828572         0.849128        -5.072107
 H         0.092326        -0.106663        -3.014809
 H         3.067775         1.805611        -0.826043
 H         4.213320         0.458181        -2.251233
 H         3.442299        -0.939148        -1.362426
 H         1.556712        -0.669780        -0.181926
