19
Iteration:  3449charge 0 multiplicity 1
 C         2.683197        -1.765638        -3.589792
 C         2.408988        -0.403088        -3.135974
 C         1.983300         0.864377        -3.994439
 C         1.094798         0.335477        -3.024847
 O         1.040409         0.980113        -1.727665
 C         2.373197         0.857994        -1.020947
 C         3.279422         0.009479        -1.927858
 C         2.004005         0.429940         0.443694
 O         2.777719         0.052120         1.304968
 H         3.709457        -1.654901        -3.807470
 H         2.799975        -2.611474        -2.994989
 H         2.215305        -2.118874        -4.536606
 H         2.488334         1.807181        -3.776503
 H         1.819406         0.648427        -5.118918
 H         0.145992        -0.170071        -3.243109
 H         2.624788         1.928101        -1.036877
 H         4.038939         0.731268        -2.259156
 H         3.807633        -0.843770        -1.511068
 H         0.957815         0.555783         0.711100
