19
Iteration:  3090
 C         2.739998        -1.707613        -3.637836
 C         2.495871        -0.311706        -3.140042
 C         2.030155         0.802064        -4.033722
 C         1.094487         0.266121        -2.976893
 O         0.967532         1.033273        -1.697546
 C         2.228194         0.891210        -0.988061
 C         3.202053        -0.041063        -1.852611
 C         2.025687         0.482034         0.508902
 O         2.882152        -0.010822         1.129542
 H         3.723057        -1.729745        -4.190284
 H         2.493374        -2.376398        -2.826860
 H         2.014906        -1.902255        -4.461025
 H         2.440742         1.770507        -3.933459
 H         1.882127         0.493755        -5.117025
 H         0.251861        -0.409211        -3.253323
 H         2.741122         1.880739        -0.845805
 H         4.330038         0.297248        -1.804540
 H         3.389455        -1.005182        -1.296688
 H         0.964724         0.781802         0.914022
