19
Iteration:  3976
 C         2.624333        -1.729336        -3.753055
 C         2.437016        -0.375818        -3.110431
 C         2.143055         0.956670        -3.970895
 C         1.175054         0.328845        -2.994578
 O         1.040735         0.994974        -1.680587
 C         2.244180         0.845871        -1.064195
 C         3.060782        -0.239565        -1.752077
 C         2.016318         0.325526         0.381912
 O         2.931170         0.298585         1.253346
 H         3.663149        -2.052437        -3.627592
 H         1.969506        -2.453800        -3.244353
 H         2.226545        -1.785316        -4.778621
 H         2.733466         1.820996        -3.846066
 H         2.049713         0.693384        -5.083602
 H         0.188710        -0.066558        -3.375046
 H         2.758309         1.853560        -1.062021
 H         4.172183        -0.229293        -1.812414
 H         2.917473        -1.221906        -1.278036
 H         0.991086         0.142908         0.763054
