19
Iteration:  3201
 C         2.674880        -1.766659        -3.494183
 C         2.460944        -0.309958        -3.085310
 C         1.993953         0.794878        -4.074975
 C         1.176315         0.340725        -2.910055
 O         0.956477         0.930425        -1.672298
 C         2.266744         0.969367        -1.060694
 C         3.320705         0.145428        -1.839684
 C         2.019936         0.488810         0.370897
 O         2.803318        -0.160734         1.071455
 H         3.623530        -2.031688        -4.118674
 H         2.738882        -2.484370        -2.673858
 H         1.844483        -2.062472        -4.219042
 H         2.569555         1.757179        -4.014087
 H         1.622062         0.468810        -5.011051
 H         0.326088        -0.226873        -3.208445
 H         2.701872         2.049959        -0.921806
 H         4.288092         0.855046        -1.990785
 H         3.512744        -0.878942        -1.325515
 H         1.274719         1.011856         0.876638
