19
Iteration:  2385
 C         2.647232        -1.820892        -3.824407
 C         2.412857        -0.454095        -3.182124
 C         2.213179         0.945210        -3.940319
 C         1.126668         0.376121        -3.032559
 O         0.951711         0.797343        -1.653787
 C         2.279594         0.901462        -1.018912
 C         3.178940        -0.223169        -1.812056
 C         2.057240         0.670052         0.506314
 O         2.823042         0.175932         1.252874
 H         3.788671        -1.985904        -3.876358
 H         2.510564        -2.534449        -3.087388
 H         2.161561        -1.930810        -4.780329
 H         2.599754         1.933850        -3.577114
 H         2.051585         0.783809        -4.977818
 H         0.128065         0.202166        -3.397840
 H         2.734623         1.930020        -0.982723
 H         4.145023         0.140111        -2.041464
 H         3.057120        -1.229043        -1.310845
 H         1.061004         1.109553         0.754750
