19
Iteration:  4085
 C         2.606216        -1.690686        -4.078435
 C         2.400193        -0.427708        -3.178262
 C         2.266645         0.918486        -3.854020
 C         1.153246         0.342060        -3.006678
 O         0.987058         0.818649        -1.650417
 C         2.271281         0.788717        -0.990331
 C         2.989910        -0.416596        -1.692242
 C         2.045789         0.505494         0.499196
 O         2.931041         0.471401         1.287971
 H         3.607697        -1.526079        -4.545885
 H         2.726196        -2.596864        -3.482277
 H         1.957514        -1.724696        -4.982155
 H         2.917342         1.645355        -3.364990
 H         2.262192         0.825712        -4.935965
 H         0.180837         0.267733        -3.345613
 H         2.713018         1.829480        -1.049485
 H         4.107021        -0.263019        -1.712803
 H         2.636660        -1.376095        -1.253115
 H         1.027953         0.777077         0.745372
