19
Iteration:  2164
 C         2.619512        -1.825616        -3.627341
 C         2.414519        -0.407220        -3.172710
 C         1.965193         0.893145        -4.084364
 C         1.149522         0.364797        -2.919762
 O         1.114426         1.103098        -1.747638
 C         2.472668         0.866329        -1.045324
 C         3.280026        -0.060288        -1.986351
 C         2.105659         0.109933         0.371646
 O         2.570609         0.331618         1.500985
 H         3.582881        -2.045765        -4.183935
 H         2.479144        -2.393109        -2.723890
 H         1.760641        -2.251122        -4.278291
 H         2.687954         1.842938        -4.042714
 H         1.638850         0.549408        -5.050688
 H         0.123686         0.119441        -3.176630
 H         3.121927         1.771434        -0.860724
 H         4.297050         0.440320        -2.163995
 H         3.580626        -0.935134        -1.415096
 H         1.300342        -0.598486         0.078505
