19
Iteration:  2118
 C         2.469077        -1.693334        -3.705197
 C         2.471840        -0.347676        -3.021190
 C         2.042669         0.726490        -4.017287
 C         1.138710         0.299619        -2.899335
 O         1.173350         1.064865        -1.647475
 C         2.375750         0.771108        -1.006215
 C         3.424074        -0.030560        -1.942839
 C         2.099122         0.099523         0.267713
 O         2.532254         0.445534         1.309238
 H         3.392625        -1.760046        -4.226648
 H         2.066127        -2.579965        -3.145424
 H         1.701596        -1.586168        -4.489551
 H         2.735003         1.613347        -3.903074
 H         1.717378         0.348604        -5.067127
 H         0.203834        -0.197078        -3.021649
 H         2.823902         1.687437        -0.543188
 H         4.251298         0.651556        -2.368825
 H         3.967106        -0.813729        -1.466312
 H         1.219173        -0.684196         0.201552
