19
Iteration:  4671
 C         2.470744        -1.753689        -3.888911
 C         2.390157        -0.447417        -3.166200
 C         2.271561         0.920416        -3.984263
 C         1.172961         0.419688        -3.062485
 O         1.122853         0.902309        -1.710880
 C         2.281159         0.765172        -1.025225
 C         3.117547        -0.334516        -1.879036
 C         2.086297         0.375446         0.567478
 O         2.748509         0.511858         1.488967
 H         3.436285        -1.942881        -4.284869
 H         2.188037        -2.587552        -3.320038
 H         1.676391        -1.626077        -4.641874
 H         3.007129         1.708725        -3.720572
 H         2.169532         0.824590        -5.032966
 H         0.248157         0.126566        -3.549672
 H         2.882547         1.716401        -1.005535
 H         4.014996         0.150799        -2.104563
 H         3.391102        -1.266532        -1.372379
 H         1.183188        -0.325854         0.517670
