19
Iteration:  1179
 C         2.428759        -1.683778        -3.983334
 C         2.479082        -0.440707        -3.149501
 C         2.386719         0.964705        -3.791734
 C         1.166927         0.346243        -3.021208
 O         0.848497         0.804513        -1.663580
 C         2.204667         0.666099        -0.964464
 C         3.160889        -0.271666        -1.805084
 C         2.100633         0.199232         0.441003
 O         2.919467         0.721565         1.257287
 H         3.336609        -2.303435        -3.696902
 H         1.698039        -2.436149        -3.678035
 H         2.228365        -1.572174        -5.001018
 H         3.026914         1.817549        -3.355161
 H         2.316060         1.181025        -4.822256
 H         0.303694         0.121759        -3.618619
 H         2.548603         1.670307        -0.922330
 H         4.133499         0.270889        -1.961662
 H         3.330441        -1.343754        -1.285489
 H         1.280928        -0.438401         0.795375
