19
Iteration:  1780charge 0 multiplicity 1
 C         2.738981        -1.662320        -3.963805
 C         2.524684        -0.413143        -3.094150
 C         2.128901         0.978784        -3.804381
 C         1.106421         0.294488        -3.023779
 O         0.946972         0.950920        -1.733577
 C         2.173981         0.690155        -1.024397
 C         3.024177        -0.440305        -1.642655
 C         2.031127         0.533544         0.472104
 O         2.968689         0.429383         1.143764
 H         3.913614        -1.692440        -4.169984
 H         2.671688        -2.561855        -3.206117
 H         2.082454        -1.742662        -4.836826
 H         2.650161         1.877251        -3.361968
 H         2.061910         0.923009        -4.868747
 H         0.193238        -0.134230        -3.454720
 H         2.776171         1.641247        -1.127374
 H         4.128804        -0.297804        -1.556171
 H         2.709021        -1.448814        -1.302956
 H         1.047749         0.321814         0.948950
