19
Iteration:  2137
 C         2.479447        -1.828962        -3.725712
 C         2.460266        -0.332544        -3.192503
 C         2.041252         0.806557        -4.075907
 C         1.161881         0.310538        -2.902561
 O         1.215621         1.057245        -1.753511
 C         2.432972         0.819359        -0.954895
 C         3.311474         0.051570        -1.975548
 C         2.051432         0.083495         0.431772
 O         2.562360         0.409470         1.436998
 H         3.415488        -2.114927        -4.177026
 H         2.325838        -2.432391        -2.777694
 H         1.798447        -2.117802        -4.464612
 H         2.336592         1.782651        -3.892469
 H         1.659411         0.625974        -5.129458
 H         0.155580        -0.136110        -3.019208
 H         3.032293         1.661169        -0.655890
 H         4.167138         0.668790        -2.142651
 H         3.700501        -0.869170        -1.475675
 H         1.321200        -0.706011         0.205690
