19
Iteration:  4473charge 0 multiplicity 1
 C         2.632601        -1.694681        -3.947826
 C         2.379533        -0.474830        -3.192602
 C         2.265793         0.903003        -3.892524
 C         1.112504         0.408269        -2.990115
 O         1.044426         0.920904        -1.713420
 C         2.344912         0.692053        -0.952993
 C         3.008348        -0.426603        -1.788748
 C         1.992247         0.505884         0.450758
 O         2.893761         0.475590         1.382180
 H         3.626617        -1.740671        -4.416689
 H         2.466443        -2.481981        -3.211950
 H         1.917304        -1.884223        -4.788304
 H         2.765471         1.885893        -3.697656
 H         2.034409         0.922750        -4.985012
 H         0.060747         0.358656        -3.495959
 H         2.982052         1.621679        -1.104005
 H         4.056965        -0.263326        -1.929232
 H         2.982124        -1.385816        -1.312434
 H         0.893786         0.407140         0.677187
