19
Iteration:  2663
 C         2.516519        -1.728874        -3.916761
 C         2.490647        -0.476888        -3.096401
 C         2.111356         0.806664        -3.946564
 C         1.105274         0.287832        -2.889240
 O         1.124032         1.079934        -1.749702
 C         2.326551         0.850373        -1.002179
 C         3.289143        -0.203207        -1.844895
 C         2.001559         0.303254         0.368312
 O         2.724962         0.397403         1.400256
 H         3.529655        -1.688539        -4.572727
 H         2.676002        -2.646486        -3.220342
 H         1.572555        -1.690441        -4.546485
 H         2.583664         1.769741        -3.614796
 H         1.774972         0.711484        -4.914744
 H         0.140941        -0.127389        -3.147534
 H         2.868934         1.839989        -0.864747
 H         4.277853         0.282620        -2.217693
 H         3.425491        -1.020438        -1.067681
 H         1.099123        -0.392632         0.354694
