19
Iteration:   467
 C         2.754998        -1.664098        -3.795893
 C         2.369577        -0.464423        -3.014241
 C         2.340859         0.919537        -3.753155
 C         1.155870         0.326573        -3.071165
 O         0.876185         0.969700        -1.858734
 C         2.152891         0.886107        -1.078660
 C         2.878622        -0.333197        -1.553465
 C         2.095234         0.640439         0.475740
 O         2.989238         0.102035         1.051480
 H         2.492960        -2.542179        -3.161326
 H         2.333909        -1.832809        -4.850623
 H         3.889825        -1.565155        -3.990658
 H         3.108849         1.648706        -3.559879
 H         2.292529         0.877232        -4.898900
 H         0.287177        -0.013669        -3.597478
 H         2.804052         1.783041        -1.380969
 H         3.929076        -0.219990        -1.412840
 H         2.485218        -1.199962        -1.004180
 H         1.173002         0.919161         0.914115
