19
Iteration:  2394charge 0 multiplicity 1
 C         2.656098        -1.833717        -3.879568
 C         2.432757        -0.386246        -3.119435
 C         2.208972         0.914667        -3.923233
 C         1.153186         0.341250        -2.991903
 O         0.972857         0.783066        -1.574025
 C         2.265778         0.867480        -1.069031
 C         3.146390        -0.195563        -1.749540
 C         2.015555         0.722893         0.432378
 O         2.816948         0.169355         1.223878
 H         3.693623        -1.959648        -4.143836
 H         2.209251        -2.656517        -3.345590
 H         2.188667        -1.813430        -4.877235
 H         2.925200         1.738025        -3.715881
 H         2.016263         0.897867        -5.040964
 H         0.150623         0.078838        -3.350921
 H         2.708523         1.886996        -1.269002
 H         4.188944         0.092249        -1.885016
 H         3.237368        -1.145223        -1.281858
 H         1.121172         1.201297         0.782892
