19
Iteration:  3392
 C         2.630435        -1.680690        -3.571725
 C         2.501584        -0.326284        -3.003783
 C         2.094723         0.787888        -3.959776
 C         1.057605         0.145555        -2.911617
 O         1.069681         1.010912        -1.824785
 C         2.235255         1.018474        -1.041369
 C         3.230359         0.067645        -1.670539
 C         1.958632         0.463886         0.405422
 O         2.897377        -0.095090         0.952369
 H         3.381340        -1.679060        -4.297179
 H         2.605142        -2.444566        -2.778858
 H         1.917658        -1.919049        -4.319237
 H         2.285778         1.854101        -3.724589
 H         2.052205         0.520819        -5.066914
 H         0.198412        -0.438417        -3.172666
 H         2.559791         2.094914        -0.978275
 H         4.223799         0.499970        -1.827805
 H         3.454152        -0.926009        -1.180834
 H         0.975195         0.793997         0.991693
