19
Iteration:  1202charge 0 multiplicity 1
 C         2.467609        -1.644075        -3.926684
 C         2.460788        -0.397861        -3.115527
 C         2.340966         1.016790        -3.758271
 C         1.149736         0.356239        -3.043729
 O         0.976329         0.766070        -1.728277
 C         2.216092         0.655864        -0.979119
 C         3.041446        -0.386348        -1.728202
 C         2.097266         0.198335         0.432686
 O         2.918569         0.764026         1.178194
 H         3.525241        -2.083206        -4.050397
 H         1.984428        -2.521369        -3.499674
 H         1.919977        -1.521480        -4.803476
 H         2.781737         1.938864        -3.292969
 H         2.310907         1.216217        -4.833786
 H         0.240074         0.229080        -3.490716
 H         2.594545         1.638447        -0.967946
 H         4.061786         0.077731        -1.594030
 H         2.948009        -1.499729        -1.270363
 H         1.653931        -0.794944         0.687023
