19
Iteration:   280charge 0 multiplicity 1
 C         2.298101        -1.635117        -4.132919
 C         2.453162        -0.472573        -3.259868
 C         2.262246         0.897184        -3.799345
 C         1.169039         0.268110        -2.880010
 O         1.281087         0.837971        -1.552118
 C         2.599856         0.624384        -1.013303
 C         3.296104        -0.396856        -1.876551
 C         2.275534         0.196746         0.403657
 O         2.156126         0.938629         1.428817
 H         2.027694        -2.496772        -3.524718
 H         1.469615        -1.378707        -4.954901
 H         3.265811        -1.860010        -4.795521
 H         2.868045         1.714805        -3.453489
 H         1.991698         1.078555        -4.817041
 H         0.072382         0.256998        -3.094274
 H         3.154412         1.589733        -1.018038
 H         4.331366        -0.154453        -2.148738
 H         3.239288        -1.373016        -1.350140
 H         1.952354        -0.832199         0.503073
