19
Iteration:  1962
 C         2.650308        -1.726504        -3.766997
 C         2.441805        -0.336297        -3.211008
 C         2.101699         0.895143        -4.026670
 C         1.099521         0.418416        -2.929316
 O         1.076102         0.949085        -1.620982
 C         2.379512         0.790974        -1.059112
 C         3.122664        -0.249747        -1.797414
 C         2.121997         0.148971         0.349594
 O         2.707829         0.520000         1.358657
 H         3.652387        -1.828239        -4.146190
 H         2.355204        -2.483347        -2.963835
 H         1.976902        -2.117047        -4.539523
 H         2.735458         1.879241        -3.991050
 H         1.747288         0.627445        -4.977048
 H         0.130001         0.089259        -3.386243
 H         2.886327         1.715653        -0.895227
 H         4.168194         0.043125        -1.769715
 H         3.058463        -1.284618        -1.449894
 H         1.360636        -0.685629         0.272596
