19
Iteration:  3543
 C         2.749467        -1.777347        -3.772815
 C         2.383090        -0.407426        -3.191483
 C         2.108172         0.947648        -3.898287
 C         1.083507         0.428506        -3.044869
 O         0.949784         0.892709        -1.667382
 C         2.249784         0.806623        -1.009336
 C         3.094920        -0.192656        -1.781948
 C         2.026101         0.340395         0.426868
 O         2.934024         0.328260         1.232327
 H         3.832375        -1.804605        -4.061236
 H         2.912047        -2.540837        -2.979076
 H         2.248210        -2.278826        -4.548594
 H         2.702061         1.727153        -3.609796
 H         1.961590         0.814367        -5.001721
 H         0.201978         0.379108        -3.648750
 H         2.896995         1.694513        -0.921696
 H         4.062979         0.295581        -1.910513
 H         3.305412        -1.155686        -1.227148
 H         1.012761         0.323238         0.789768
