19
Iteration:  1138charge 0 multiplicity 1
 C         2.552661        -1.684856        -3.907633
 C         2.425319        -0.354687        -3.251689
 C         2.183303         0.970963        -3.946741
 C         1.117652         0.329885        -2.963234
 O         1.017152         0.736743        -1.634103
 C         2.406085         0.785149        -1.045400
 C         3.119028        -0.321254        -1.794142
 C         2.081590         0.454593         0.420539
 O         2.823542         0.486855         1.409860
 H         3.548944        -2.210507        -3.551353
 H         1.756646        -2.358580        -3.562480
 H         2.519526        -1.534308        -5.022021
 H         2.623841         1.957516        -3.559018
 H         1.922197         0.828959        -4.988865
 H         0.262741         0.045246        -3.407614
 H         2.932815         1.792884        -1.118246
 H         4.236442        -0.358254        -1.807556
 H         2.801949        -1.289678        -1.364436
 H         0.944507         0.133282         0.495497
