19
Iteration:  3071
 C         2.608090        -1.728408        -3.804488
 C         2.479406        -0.412681        -3.079724
 C         2.077804         0.855212        -3.906453
 C         1.158949         0.202825        -2.892210
 O         1.070359         0.931142        -1.804193
 C         2.215045         0.889725        -1.022291
 C         3.218823         0.033950        -1.700848
 C         1.968158         0.496528         0.484217
 O         2.881049         0.058009         1.091161
 H         3.482686        -1.612828        -4.461652
 H         2.574221        -2.558835        -3.091034
 H         1.756886        -2.006906        -4.461976
 H         2.353867         1.872947        -3.592621
 H         1.915754         0.795069        -4.970228
 H         0.197689        -0.198596        -3.199108
 H         2.602759         1.899251        -0.858844
 H         4.082222         0.584257        -1.987075
 H         3.750463        -0.682370        -1.056460
 H         0.974648         0.760920         0.801152
