19
Iteration:  4607
 C         2.644454        -1.642635        -3.943876
 C         2.405957        -0.467455        -3.068719
 C         2.273324         0.834471        -3.886625
 C         1.060766         0.365727        -3.121067
 O         1.004531         1.027999        -1.745361
 C         2.276373         0.704681        -0.974249
 C         3.027117        -0.421619        -1.668457
 C         2.014272         0.495974         0.420754
 O         2.950291         0.428802         1.301821
 H         3.608934        -1.724155        -4.397933
 H         2.288413        -2.598153        -3.484550
 H         1.888270        -1.447402        -4.738406
 H         2.756352         1.628982        -3.283951
 H         2.364202         0.826842        -4.939418
 H         0.095127         0.021638        -3.401053
 H         2.905895         1.649883        -1.090619
 H         4.091807        -0.261144        -1.635827
 H         2.949664        -1.429071        -1.225101
 H         0.974478         0.339117         0.859697
