19
Iteration:  2057
 C         2.582676        -1.729595        -3.675466
 C         2.401087        -0.351869        -3.164607
 C         2.012176         0.866763        -4.097248
 C         1.062049         0.386991        -2.939739
 O         1.154924         1.026715        -1.656811
 C         2.456040         0.838681        -1.013567
 C         3.330229        -0.143102        -1.966945
 C         2.164353         0.081000         0.337624
 O         2.525775         0.446066         1.463891
 H         3.676136        -1.907590        -3.993837
 H         2.624067        -2.485897        -2.902862
 H         1.691566        -2.106985        -4.322746
 H         2.633165         1.816037        -4.290054
 H         1.713917         0.410241        -4.979137
 H         0.068444         0.039579        -3.223122
 H         3.117383         1.795525        -0.822584
 H         4.336747         0.194628        -2.259889
 H         3.376049        -1.157888        -1.447807
 H         1.386451        -0.794762         0.235891
