19
Iteration:  2260
 C         2.607469        -1.766080        -3.567632
 C         2.511914        -0.314304        -3.220511
 C         2.019172         0.811162        -4.155562
 C         1.137447         0.474256        -2.933921
 O         1.067761         0.994192        -1.635003
 C         2.339836         0.784031        -1.008727
 C         3.323473        -0.071191        -1.903263
 C         1.948607         0.250809         0.374201
 O         2.741445         0.261841         1.365604
 H         3.554267        -2.069421        -3.900632
 H         2.224671        -2.422114        -2.751460
 H         1.880627        -2.061672        -4.344606
 H         2.865496         1.659315        -4.176903
 H         1.726979         0.418173        -5.142811
 H         0.200792         0.176378        -3.353130
 H         2.698430         1.821474        -0.834257
 H         4.321069         0.377990        -2.203997
 H         3.680532        -1.007994        -1.630082
 H         0.869395        -0.268057         0.300063
