19
Iteration:  3364charge 0 multiplicity 1
 C         2.677750        -1.814990        -3.585637
 C         2.569571        -0.359215        -3.072521
 C         2.056486         0.783420        -3.983898
 C         1.099173         0.251614        -2.884554
 O         0.915691         1.070034        -1.748726
 C         2.217606         0.996929        -1.051580
 C         3.327054         0.105055        -1.760967
 C         2.009105         0.521379         0.431104
 O         2.834683        -0.166209         1.029449
 H         3.713655        -1.928303        -4.114140
 H         2.433261        -2.537958        -2.795591
 H         1.943207        -1.862416        -4.493243
 H         2.468863         1.751382        -3.921687
 H         1.685368         0.510972        -5.034490
 H         0.268363        -0.377683        -3.247160
 H         2.622157         2.012536        -0.950997
 H         4.191613         0.722847        -2.037121
 H         3.642215        -0.785280        -1.243448
 H         1.167271         0.949074         0.895402
