19
Iteration:  3448charge 0 multiplicity 1
 C         2.683897        -1.762112        -3.590179
 C         2.403006        -0.418437        -3.135602
 C         1.981440         0.866747        -3.998047
 C         1.095549         0.342494        -3.024551
 O         1.040161         0.977660        -1.727086
 C         2.374984         0.861241        -1.016089
 C         3.277871         0.015520        -1.927209
 C         1.990634         0.440058         0.441065
 O         2.785200         0.045692         1.304999
 H         3.702984        -1.644441        -3.826357
 H         2.817018        -2.622440        -2.986424
 H         2.256590        -2.133960        -4.508781
 H         2.494657         1.776277        -3.776976
 H         1.823436         0.657807        -5.141679
 H         0.147276        -0.141794        -3.254720
 H         2.620231         1.922374        -1.010813
 H         4.067939         0.697960        -2.292056
 H         3.828759        -0.836769        -1.490843
 H         0.966622         0.535391         0.710728
