19
Iteration:   367
 C         2.421778        -1.700584        -4.016927
 C         2.486742        -0.426713        -3.159440
 C         2.201710         0.866137        -3.911242
 C         1.215375         0.407568        -2.945009
 O         1.132806         0.881282        -1.706126
 C         2.398919         0.750427        -0.992951
 C         3.292582        -0.326939        -1.850072
 C         1.995329         0.303817         0.488783
 O         2.602865         0.605813         1.453413
 H         2.040037        -2.502329        -3.398512
 H         1.902411        -1.366073        -4.985666
 H         3.350303        -2.204119        -4.323810
 H         2.782521         1.790930        -3.882036
 H         1.992227         0.591893        -4.902374
 H         0.269469         0.045617        -3.477834
 H         2.816743         1.799813        -0.895810
 H         4.355117        -0.070146        -1.969670
 H         3.176790        -1.159115        -1.219485
 H         1.020143        -0.455264         0.412230
