19
Iteration:  2445charge 0 multiplicity 1
 C         2.655444        -1.647286        -3.977597
 C         2.501293        -0.422125        -3.084697
 C         2.129375         0.910378        -3.777342
 C         1.181227         0.189732        -2.981310
 O         0.985064         0.759670        -1.725094
 C         2.291233         0.828619        -1.052378
 C         3.043182        -0.308159        -1.654280
 C         2.178210         0.888935         0.435905
 O         2.758763         0.169319         1.164871
 H         3.685841        -1.731768        -4.187110
 H         2.177542        -2.575624        -3.438947
 H         2.063906        -1.722275        -4.936489
 H         2.508688         1.780404        -3.287216
 H         1.923283         1.004181        -4.909590
 H         0.168601        -0.231038        -3.233658
 H         2.818757         1.796858        -1.283834
 H         4.171806        -0.147468        -1.593505
 H         3.010940        -1.289836        -1.174649
 H         1.433852         1.697773         0.766132
