19
Iteration:  3890
 C         2.407868        -1.749789        -3.842425
 C         2.459779        -0.423868        -3.144880
 C         2.193923         0.801001        -3.946975
 C         1.195989         0.307129        -3.003104
 O         1.091557         0.981911        -1.677575
 C         2.387351         0.870818        -1.008876
 C         3.250938        -0.080257        -1.842254
 C         2.012712         0.252131         0.449999
 O         2.717043         0.382389         1.369949
 H         3.308626        -1.786025        -4.538451
 H         2.499199        -2.662690        -3.266900
 H         1.565903        -1.858900        -4.520700
 H         2.752198         1.684649        -3.634615
 H         1.880749         0.921524        -5.017391
 H         0.300582        -0.174557        -3.462924
 H         2.785979         1.867672        -0.860489
 H         4.211487         0.437596        -2.134085
 H         3.521328        -0.960733        -1.286887
 H         0.959861        -0.280883         0.375102
