19
Iteration:  1281
 C         2.601519        -1.503632        -4.146630
 C         2.466787        -0.476385        -3.143709
 C         2.211605         0.874047        -3.773344
 C         1.063906         0.249694        -2.957361
 O         1.114237         0.893535        -1.675881
 C         2.323622         0.607614        -1.004923
 C         3.073963        -0.554197        -1.724006
 C         2.018319         0.584401         0.472435
 O         2.841086         0.607389         1.325219
 H         3.428467        -1.514058        -4.880678
 H         2.572747        -2.417486        -3.561115
 H         1.714482        -1.524811        -4.829359
 H         2.518153         1.825905        -3.375799
 H         1.973044         0.771526        -4.840879
 H         0.087968        -0.020940        -3.452660
 H         2.812808         1.533796        -1.080124
 H         4.178803        -0.412559        -1.591715
 H         3.090477        -1.699175        -1.488374
 H         0.853556         0.807848         0.709884
