19
Iteration:  2017charge 0 multiplicity 1
 C         2.476626        -1.795733        -3.862987
 C         2.459504        -0.394476        -3.120486
 C         2.065181         0.819975        -3.928482
 C         1.162578         0.281766        -2.904054
 O         1.146143         1.045724        -1.734194
 C         2.363964         0.790389        -0.990358
 C         3.394852        -0.035185        -1.965320
 C         2.054662         0.059865         0.379442
 O         2.616940         0.539578         1.435313
 H         3.352689        -2.226974        -4.284743
 H         2.068937        -2.644008        -3.220604
 H         1.787466        -1.584223        -4.632891
 H         2.504952         1.804557        -3.531884
 H         1.975019         0.641762        -4.974264
 H         0.139637        -0.129118        -3.146133
 H         2.595428         1.732482        -0.589469
 H         4.131129         0.671642        -2.294256
 H         3.867224        -0.921463        -1.531540
 H         1.266034        -0.679292         0.359858
