19
Iteration:  3783charge 0 multiplicity 1
 C         2.471273        -1.681054        -4.002967
 C         2.482925        -0.429338        -3.114676
 C         2.148555         0.955586        -3.924574
 C         1.210472         0.358834        -2.925567
 O         1.065967         0.881069        -1.609468
 C         2.421914         0.668775        -1.012912
 C         3.239472        -0.311194        -1.806251
 C         2.054157         0.205217         0.381187
 O         2.671420         0.691858         1.339971
 H         3.461243        -2.235492        -4.090268
 H         1.726318        -2.219983        -3.424399
 H         2.113560        -1.498855        -4.991229
 H         2.545743         1.828531        -3.441923
 H         1.852970         0.894451        -4.946069
 H         0.295644        -0.101840        -3.371292
 H         2.760002         1.690868        -0.925018
 H         4.278827        -0.003348        -2.104204
 H         3.221939        -1.301263        -1.304537
 H         1.227640        -0.670611         0.447639
