19
Iteration:  2789
 C         2.510886        -1.737845        -3.956655
 C         2.378287        -0.341099        -3.323258
 C         2.179804         1.025416        -3.925768
 C         1.150981         0.319655        -2.996974
 O         1.127896         0.768777        -1.553105
 C         2.428117         0.681602        -1.053730
 C         3.175875        -0.358162        -1.931967
 C         2.151805         0.229367         0.506952
 O         2.607489         0.771789         1.508222
 H         3.553716        -2.018839        -4.039560
 H         2.000021        -2.463763        -3.196686
 H         2.126658        -1.766226        -5.018896
 H         3.008512         1.781422        -3.553543
 H         1.807790         1.154383        -4.907699
 H         0.235836        -0.111245        -3.336520
 H         2.857623         1.670768        -1.148538
 H         4.188182        -0.155085        -2.151379
 H         3.175982        -1.391592        -1.610015
 H         1.193037        -0.424619         0.530716
