19
Iteration:  2307
 C         2.546497        -1.759302        -3.764813
 C         2.462755        -0.433088        -2.996361
 C         2.232308         0.787171        -3.902489
 C         1.097227         0.280780        -2.944325
 O         0.947962         1.101192        -1.790669
 C         2.307057         0.945067        -1.029995
 C         3.263408        -0.028995        -1.755793
 C         2.034677         0.316214         0.343889
 O         2.812079         0.196660         1.222085
 H         3.595757        -1.939520        -4.117246
 H         2.326556        -2.562406        -3.153799
 H         1.822287        -1.965625        -4.580304
 H         2.479153         1.798290        -3.674171
 H         2.058984         0.518509        -5.029056
 H         0.265555        -0.375243        -3.329098
 H         2.821856         1.912195        -0.861120
 H         4.215070         0.386433        -2.109301
 H         3.573344        -0.957001        -1.293916
 H         0.976657        -0.130431         0.503629
