19
Iteration:   379
 C         2.399563        -1.721890        -3.977033
 C         2.532680        -0.446742        -3.154902
 C         2.305634         0.874223        -3.922971
 C         1.262257         0.301251        -2.963444
 O         1.071634         0.873741        -1.596268
 C         2.342417         0.840095        -1.034717
 C         3.225044        -0.261384        -1.829027
 C         1.987239         0.367981         0.380515
 O         2.653982         0.519430         1.418290
 H         1.732577        -2.459137        -3.621289
 H         1.823233        -1.515194        -4.943522
 H         3.444063        -2.025416        -4.281440
 H         2.916168         1.731467        -3.598817
 H         1.934595         0.898111        -4.923884
 H         0.253839        -0.123535        -3.309307
 H         2.899690         1.817564        -1.030176
 H         4.249237         0.059835        -1.834673
 H         3.218778        -1.219005        -1.401414
 H         0.887933        -0.153722         0.482310
