19
Iteration:  2991
 C         2.702640        -1.685367        -3.814343
 C         2.448406        -0.324875        -3.210007
 C         2.073567         0.964912        -3.936711
 C         1.172024         0.268126        -2.985426
 O         0.964653         0.899177        -1.745259
 C         2.194991         0.719954        -1.021509
 C         3.079300        -0.247835        -1.815925
 C         2.074755         0.454659         0.492111
 O         2.938823         0.317555         1.332970
 H         3.803625        -1.896402        -3.773859
 H         2.395852        -2.370266        -3.090561
 H         2.327517        -1.693916        -4.816264
 H         2.589525         1.825456        -3.529944
 H         1.989854         0.771718        -4.966487
 H         0.276071        -0.253270        -3.284772
 H         2.799936         1.602429        -0.912546
 H         4.109740         0.190483        -1.994292
 H         3.011053        -1.257737        -1.658278
 H         0.917582         0.557135         0.784464
