19
Iteration:  4727charge 0 multiplicity 1
 C         2.396718        -1.763542        -3.803378
 C         2.406516        -0.339934        -3.132095
 C         2.288349         0.902316        -3.884141
 C         1.127130         0.349891        -2.986911
 O         1.104297         0.946746        -1.697279
 C         2.383553         0.825079        -1.066625
 C         3.196154        -0.252786        -1.826945
 C         2.220976         0.169555         0.325891
 O         2.625739         0.533331         1.357906
 H         3.363634        -2.154737        -3.870578
 H         1.840675        -2.268530        -3.033672
 H         1.897197        -1.830994        -4.757678
 H         2.689716         1.793946        -3.383083
 H         2.239202         0.852893        -5.023775
 H         0.207073        -0.002773        -3.569514
 H         2.846451         1.851272        -0.985229
 H         4.261957        -0.180420        -1.842839
 H         2.963418        -1.130033        -1.209821
 H         1.402928        -0.548976         0.258023
