19
Iteration:  4619
 C         2.534625        -1.646715        -3.951313
 C         2.410111        -0.421970        -3.065889
 C         2.240081         0.891984        -3.803946
 C         1.132946         0.317673        -2.994780
 O         1.064881         1.006258        -1.754497
 C         2.363030         0.731812        -1.043497
 C         3.100455        -0.469158        -1.659650
 C         1.954781         0.446100         0.427010
 O         2.877707         0.460185         1.222582
 H         3.580019        -1.598189        -4.283807
 H         2.539220        -2.640847        -3.373198
 H         1.941038        -1.739126        -4.876747
 H         2.552961         1.959570        -3.576928
 H         2.121013         0.828278        -4.875385
 H         0.233409        -0.074067        -3.479731
 H         2.966139         1.686923        -0.951820
 H         4.203131        -0.337848        -1.691606
 H         2.740043        -1.386613        -1.132286
 H         0.838007         0.386816         0.517669
