19
Iteration:  1382charge 0 multiplicity 1
 C         2.586415        -1.745149        -3.673249
 C         2.457604        -0.399182        -3.054749
 C         2.294158         0.926575        -3.975653
 C         1.180571         0.360383        -3.052076
 O         0.882373         0.928196        -1.748014
 C         2.142670         0.966760        -1.023571
 C         3.042307        -0.157565        -1.633330
 C         2.109312         0.328392         0.383475
 O         3.018478         0.218689         1.146435
 H         3.568071        -2.047637        -3.822367
 H         1.975810        -2.526943        -3.135153
 H         2.100065        -1.655737        -4.721480
 H         2.643971         1.897047        -3.715146
 H         2.170403         0.818738        -5.087086
 H         0.293659        -0.134759        -3.470052
 H         2.576528         1.949128        -1.079986
 H         4.081396         0.139479        -1.744127
 H         2.878706        -1.185940        -1.126587
 H         1.171204        -0.225767         0.534289
