19
Iteration:  3859charge 0 multiplicity 1
 C         2.495014        -1.758265        -3.671722
 C         2.463188        -0.310007        -3.165164
 C         2.098817         0.976024        -3.938991
 C         1.203399         0.359162        -2.992315
 O         1.110930         0.990764        -1.685870
 C         2.409371         0.766706        -1.021731
 C         3.217012        -0.273289        -1.903550
 C         1.992076         0.139063         0.366667
 O         2.711515         0.493311         1.322623
 H         3.588594        -1.721384        -4.053316
 H         2.314219        -2.532989        -2.899260
 H         1.854471        -1.983851        -4.508434
 H         2.496646         1.971413        -3.733101
 H         1.683685         0.832065        -5.022072
 H         0.379830        -0.211810        -3.425493
 H         2.890923         1.725209        -0.844201
 H         4.314621         0.000736        -2.017394
 H         3.223719        -1.286585        -1.483562
 H         1.173137        -0.579641         0.382815
