19
Iteration:  4291charge 0 multiplicity 1
 C         2.539608        -1.700659        -4.018647
 C         2.342081        -0.474679        -3.058813
 C         2.134655         0.852780        -3.966762
 C         1.166889         0.389354        -2.887538
 O         1.214204         1.095962        -1.652560
 C         2.415755         0.649034        -0.987155
 C         3.202757        -0.390612        -1.855736
 C         2.055150         0.204777         0.459209
 O         2.629386         0.648890         1.361564
 H         3.404065        -1.726461        -4.637884
 H         2.439792        -2.672550        -3.444280
 H         1.693267        -1.750756        -4.788194
 H         2.711717         1.720803        -3.696833
 H         2.014593         0.751725        -5.030048
 H         0.065198         0.173029        -3.151819
 H         2.914975         1.633099        -0.881048
 H         4.014143         0.221081        -2.252597
 H         3.455943        -1.334215        -1.313010
 H         1.132443        -0.540220         0.309452
