19
Iteration:  4969
 C         2.571987        -1.641188        -3.950642
 C         2.392686        -0.437422        -3.173583
 C         2.292015         0.830652        -3.829227
 C         1.101974         0.412840        -2.971486
 O         1.079278         0.988215        -1.661797
 C         2.250865         0.668912        -1.051160
 C         3.111699        -0.491332        -1.775120
 C         1.947092         0.429784         0.427777
 O         2.899941         0.541705         1.275489
 H         3.538652        -1.709977        -4.400660
 H         2.551444        -2.466443        -3.152634
 H         1.802406        -1.764499        -4.666516
 H         2.905715         1.706883        -3.425440
 H         2.269884         0.790070        -4.949189
 H         0.161529         0.332589        -3.385373
 H         2.756766         1.554937        -0.805214
 H         4.186328        -0.131676        -1.751192
 H         2.931005        -1.497120        -1.422939
 H         0.836629         0.185787         0.681126
