19
Iteration:   867
 C         2.405607        -1.719410        -3.940761
 C         2.472515        -0.391294        -3.192352
 C         2.392810         0.966490        -3.724341
 C         1.238600         0.391967        -3.006551
 O         1.003668         0.847187        -1.686376
 C         2.234287         0.642445        -1.033060
 C         3.182675        -0.343353        -1.800351
 C         1.989179         0.366097         0.436212
 O         2.799703         0.575455         1.268852
 H         1.454606        -2.105784        -3.640357
 H         2.528663        -1.712367        -4.997407
 H         3.327765        -2.355964        -3.611854
 H         2.865707         1.907109        -3.376737
 H         2.340268         1.159490        -4.883631
 H         0.253911         0.126757        -3.537777
 H         2.827023         1.572822        -0.951865
 H         4.314540        -0.013941        -1.785232
 H         2.987208        -1.377495        -1.274741
 H         0.884454        -0.173770         0.535460
