19
Iteration:  3766charge 0 multiplicity 1
 C         2.428668        -1.640752        -3.876958
 C         2.520483        -0.310217        -3.263302
 C         2.157950         1.036174        -3.857809
 C         1.175322         0.331082        -2.965468
 O         1.127435         0.747992        -1.625243
 C         2.356112         0.624679        -1.026034
 C         3.223215        -0.404572        -1.845779
 C         2.055159         0.242839         0.382243
 O         2.679854         0.746089         1.397097
 H         3.437015        -1.837969        -4.142223
 H         1.907279        -2.507426        -3.353205
 H         1.970764        -1.709675        -4.952102
 H         2.776827         1.933386        -3.800637
 H         1.925278         0.873029        -5.036006
 H         0.216387        -0.040584        -3.186816
 H         2.987312         1.572751        -1.023213
 H         4.211987        -0.104266        -1.593079
 H         3.033785        -1.462183        -1.584937
 H         1.240592        -0.422492         0.428741
