19
Iteration:  1986
 C         2.516648        -1.751175        -3.833636
 C         2.450476        -0.396421        -3.136572
 C         2.108174         0.861424        -3.985955
 C         1.157189         0.323747        -2.855978
 O         1.076707         0.894838        -1.621000
 C         2.410345         0.968858        -1.058081
 C         3.275832        -0.149081        -1.860797
 C         2.165717         0.239396         0.321769
 O         2.585243         0.430418         1.374823
 H         3.500616        -1.986037        -4.156932
 H         2.075290        -2.620635        -3.224986
 H         1.879355        -1.789483        -4.659044
 H         2.710242         1.793150        -3.814901
 H         1.866702         0.605150        -5.027718
 H         0.205364        -0.100807        -3.263374
 H         2.773212         1.944090        -0.884130
 H         4.301227         0.183852        -2.148245
 H         3.343746        -1.095806        -1.340538
 H         1.362883        -0.551025         0.039986
