19
Iteration:   421charge 0 multiplicity 1
 C         2.607323        -1.765293        -3.721827
 C         2.455117        -0.391672        -3.124155
 C         2.374782         0.935977        -3.898057
 C         1.208135         0.438047        -3.013924
 O         0.919987         0.902407        -1.780632
 C         2.156876         0.756268        -0.989874
 C         3.045090        -0.324766        -1.742193
 C         1.962739         0.513820         0.455464
 O         2.946109         0.286677         1.167761
 H         2.222199        -2.601134        -3.059960
 H         2.033687        -1.788525        -4.736191
 H         3.612042        -1.904780        -3.998039
 H         2.940209         1.786415        -3.516674
 H         2.202870         1.100966        -4.932484
 H         0.299523         0.195267        -3.658727
 H         2.682235         1.761771        -1.055491
 H         4.114850         0.012492        -1.768939
 H         2.956725        -1.300525        -1.197548
 H         0.982612         0.499938         0.800087
