19
Iteration:  2928charge 0 multiplicity 1
 C         2.608757        -1.627625        -3.993908
 C         2.449723        -0.389440        -3.171304
 C         2.237966         1.009711        -3.739468
 C         1.140130         0.274055        -3.027958
 O         0.902131         0.698527        -1.696872
 C         2.198914         0.747786        -0.977908
 C         3.070147        -0.383320        -1.756463
 C         2.022594         0.504049         0.448495
 O         3.012574         0.537387         1.243265
 H         3.663396        -2.065634        -3.820069
 H         1.854356        -2.418514        -3.657757
 H         2.544295        -1.564554        -5.120143
 H         2.619183         1.800824        -3.102733
 H         2.428595         1.150031        -4.793047
 H         0.232482         0.066290        -3.578225
 H         2.685749         1.748980        -1.178620
 H         4.172461        -0.194956        -1.797852
 H         2.986537        -1.392891        -1.194206
 H         1.063409         0.212656         0.782568
