19
Iteration:  2340
 C         2.621964        -1.784120        -3.771117
 C         2.471967        -0.337899        -3.059617
 C         2.165212         0.792359        -3.954522
 C         1.153790         0.353951        -3.003808
 O         1.014836         1.005041        -1.755312
 C         2.282845         0.896826        -0.968254
 C         3.169095        -0.121940        -1.684142
 C         1.889820         0.403995         0.433305
 O         2.923373         0.215700         1.147980
 H         3.642914        -1.993287        -4.165661
 H         2.521117        -2.474344        -3.010082
 H         1.874879        -1.895904        -4.562589
 H         2.607861         1.759969        -3.880863
 H         1.818804         0.473886        -5.007436
 H         0.224918        -0.171188        -3.337642
 H         2.745058         1.906882        -0.918162
 H         4.151070         0.225088        -1.926480
 H         3.143749        -1.116499        -1.314576
 H         0.831668         0.058713         0.596885
