19
Iteration:  4965
 C         2.569622        -1.660973        -3.906340
 C         2.387632        -0.466391        -3.169481
 C         2.280387         0.860712        -3.824378
 C         1.121880         0.440475        -2.964783
 O         1.085882         0.960858        -1.688094
 C         2.275742         0.685792        -1.008173
 C         3.109203        -0.457063        -1.827729
 C         1.955937         0.399100         0.434794
 O         2.876161         0.541675         1.277260
 H         3.581193        -1.788421        -4.466548
 H         2.519641        -2.551382        -3.176875
 H         1.784320        -1.771668        -4.748271
 H         2.729542         1.795085        -3.365187
 H         2.246225         0.847495        -4.900734
 H         0.135313         0.268994        -3.498589
 H         2.940292         1.649167        -0.873568
 H         4.120902        -0.193891        -1.839458
 H         2.858790        -1.471327        -1.326031
 H         0.914451         0.300828         0.623139
