19
Iteration:  4752
 C         2.467149        -1.827498        -3.855881
 C         2.394733        -0.414438        -3.199063
 C         2.197144         0.879785        -3.991812
 C         1.216712         0.463724        -2.967296
 O         1.121863         0.950843        -1.674008
 C         2.423655         0.813682        -1.034087
 C         3.129539        -0.289190        -1.846208
 C         2.150149         0.324294         0.385112
 O         2.611182         0.476884         1.483322
 H         3.511261        -2.104696        -4.107099
 H         1.998981        -2.489546        -3.075904
 H         1.927426        -1.831997        -4.795116
 H         2.808944         1.733754        -3.645872
 H         1.711704         0.961771        -5.000916
 H         0.314660         0.146845        -3.479706
 H         2.998780         1.786048        -1.169237
 H         4.221407         0.067532        -1.913385
 H         3.118140        -1.206225        -1.245706
 H         1.533592        -0.563202         0.263679
