19
Iteration:  2736charge 0 multiplicity 1
 C         2.396132        -1.688235        -3.912870
 C         2.439781        -0.412462        -3.139807
 C         2.219296         0.837233        -3.871474
 C         1.134133         0.248263        -2.951233
 O         1.111377         0.931725        -1.632104
 C         2.378901         0.811894        -0.976482
 C         3.241674        -0.166475        -1.868531
 C         2.225214         0.114347         0.295148
 O         2.564316         0.656244         1.380196
 H         3.382911        -2.004777        -4.253205
 H         1.958716        -2.510739        -3.380331
 H         1.941813        -1.361902        -4.836728
 H         2.615984         1.866601        -3.532865
 H         2.081844         0.680021        -4.904030
 H         0.191376        -0.125678        -3.287175
 H         2.761638         1.832854        -0.885045
 H         4.266600         0.161601        -1.867947
 H         3.222483        -1.211790        -1.495752
 H         1.963970        -0.917228         0.244851
