19
Iteration:  1944
 C         2.636652        -1.702757        -3.787721
 C         2.345412        -0.414718        -3.153148
 C         2.150526         0.941516        -3.966667
 C         1.107720         0.338029        -3.070311
 O         1.076594         1.032092        -1.757260
 C         2.276208         0.702810        -0.952040
 C         3.128003        -0.287676        -1.896634
 C         2.095837         0.170920         0.475350
 O         2.813223         0.569901         1.393875
 H         3.701227        -1.666007        -4.077131
 H         2.674430        -2.608880        -3.131063
 H         2.046556        -1.811487        -4.647068
 H         2.541127         1.800004        -3.429612
 H         2.035329         0.841767        -5.051441
 H         0.100832        -0.136543        -3.178660
 H         2.757512         1.679327        -0.835033
 H         4.204045         0.000809        -2.048517
 H         3.072101        -1.263999        -1.396846
 H         1.367856        -0.691058         0.483894
