19
Iteration:  3387charge 0 multiplicity 1
 C         2.595165        -1.687603        -3.563816
 C         2.539140        -0.314050        -3.029366
 C         2.078089         0.774408        -3.941425
 C         1.087252         0.133202        -2.900532
 O         1.107129         0.995564        -1.838532
 C         2.215764         0.989594        -1.022837
 C         3.181790         0.093030        -1.701159
 C         1.927520         0.515680         0.407709
 O         2.911369        -0.116105         0.941864
 H         3.574145        -1.588950        -4.210358
 H         2.618594        -2.420158        -2.754003
 H         1.776796        -1.863362        -4.341431
 H         2.206240         1.809878        -3.646199
 H         2.226022         0.586653        -4.985829
 H         0.188158        -0.482057        -3.139206
 H         2.675281         1.965971        -0.810486
 H         4.149927         0.558732        -1.983859
 H         3.355034        -0.765373        -1.060437
 H         1.066175         0.801471         0.938738
