19
Iteration:  3835
 C         2.570994        -1.823520        -3.835698
 C         2.416979        -0.326532        -3.190160
 C         2.160495         0.868513        -3.976415
 C         1.072052         0.438534        -2.945367
 O         1.129237         0.975834        -1.632965
 C         2.339564         0.833501        -0.994955
 C         3.142335        -0.255279        -1.853765
 C         2.191126         0.181543         0.392656
 O         2.653243         0.497732         1.391855
 H         3.693846        -1.979072        -3.912251
 H         2.045127        -2.644423        -3.359668
 H         2.257358        -1.815737        -4.907103
 H         2.760662         1.855986        -3.914543
 H         1.977620         0.573326        -4.991061
 H         0.032665         0.195805        -3.339424
 H         2.733494         1.839246        -0.891006
 H         4.211553         0.071345        -1.996137
 H         3.149807        -1.260140        -1.473132
 H         1.517320        -0.663308         0.157921
