19
Iteration:  3307
 C         2.792898        -1.836252        -3.578178
 C         2.496992        -0.311392        -3.100846
 C         1.871182         0.799732        -3.936123
 C         1.087928         0.284459        -2.906406
 O         1.030773         1.040495        -1.711967
 C         2.317738         0.973716        -1.070255
 C         3.361908         0.111992        -1.891287
 C         2.070011         0.535302         0.363833
 O         2.679232        -0.178830         1.126888
 H         3.900234        -2.092730        -3.653802
 H         2.382876        -2.524545        -2.788133
 H         2.025057        -2.052601        -4.407855
 H         2.248288         1.880365        -3.879380
 H         1.629931         0.555566        -4.982256
 H         0.239766        -0.340756        -3.089571
 H         2.765284         1.959405        -0.902639
 H         4.209690         0.610894        -2.254155
 H         3.715310        -0.741178        -1.279485
 H         1.160902         0.995744         0.681399
