19
Iteration:  4416charge 0 multiplicity 1
 C         2.422579        -1.685896        -3.960133
 C         2.386369        -0.449200        -3.111886
 C         2.314911         0.800916        -3.973234
 C         1.158045         0.436008        -2.971613
 O         1.075947         0.945008        -1.721646
 C         2.295163         0.819383        -1.013546
 C         3.124600        -0.265737        -1.759818
 C         2.084873         0.240277         0.386215
 O         2.798106         0.539914         1.440977
 H         3.520845        -1.787371        -4.206897
 H         2.284368        -2.610412        -3.449139
 H         1.802046        -1.625076        -4.811851
 H         2.845055         1.789711        -3.582565
 H         2.093320         0.620481        -5.041673
 H         0.294329        -0.169155        -3.202688
 H         2.878496         1.804035        -1.088529
 H         4.259800        -0.145483        -1.827963
 H         2.932216        -1.102256        -1.141857
 H         1.290481        -0.531376         0.358396
