19
Iteration:  3558
 C         2.750041        -1.733959        -3.770183
 C         2.440572        -0.345529        -3.162038
 C         2.221823         0.915582        -3.950395
 C         1.063295         0.459979        -3.010071
 O         0.927027         0.807398        -1.688007
 C         2.200095         0.781945        -1.007702
 C         3.096825        -0.242810        -1.804839
 C         1.994159         0.401674         0.450630
 O         2.996897         0.365736         1.236539
 H         3.716524        -1.670869        -4.262274
 H         2.691199        -2.512441        -2.965576
 H         1.887064        -1.882774        -4.490453
 H         2.862501         1.912354        -3.742707
 H         1.903541         0.856944        -4.975752
 H         0.089234        -0.008015        -3.334909
 H         2.499427         1.837051        -0.980532
 H         4.206366        -0.221213        -1.719117
 H         2.851331        -1.234760        -1.303883
 H         0.937249         0.051002         0.711151
