19
Iteration:  3754charge 0 multiplicity 1
 C         2.489248        -1.654843        -3.959052
 C         2.481444        -0.304014        -3.233944
 C         2.203139         1.033596        -3.881627
 C         1.185092         0.383510        -2.993763
 O         1.105532         0.678106        -1.624497
 C         2.414809         0.626185        -1.030892
 C         3.110139        -0.409676        -1.899739
 C         2.082017         0.301416         0.479300
 O         2.671260         0.748002         1.426973
 H         3.461843        -2.073994        -4.178071
 H         2.210499        -2.269170        -3.063051
 H         1.738202        -1.784077        -4.804688
 H         2.565561         1.954637        -3.524191
 H         2.015352         0.925928        -5.057280
 H         0.299083         0.009204        -3.424340
 H         2.879863         1.654117        -1.090517
 H         4.172796        -0.344496        -2.008260
 H         2.920159        -1.411764        -1.439092
 H         1.344343        -0.442020         0.653674
