19
Iteration:  3311
 C         2.794834        -1.833358        -3.582283
 C         2.446049        -0.337110        -3.099784
 C         1.896647         0.807370        -3.940668
 C         1.090888         0.300774        -2.884898
 O         1.026570         1.030414        -1.682755
 C         2.331067         0.933328        -1.068874
 C         3.390951         0.133902        -1.926382
 C         2.039492         0.548426         0.340420
 O         2.689944        -0.182136         1.135443
 H         3.863770        -1.968177        -3.477864
 H         2.444197        -2.408486        -2.749519
 H         2.154432        -2.110430        -4.391055
 H         2.273025         1.765323        -3.908433
 H         1.688149         0.550753        -5.005648
 H         0.176067        -0.246383        -3.163048
 H         2.712165         1.954396        -0.910289
 H         4.320213         0.658902        -2.292432
 H         3.593446        -0.807322        -1.424810
 H         1.052578         1.124440         0.682597
