19
Iteration:  2904
 C         2.641293        -1.648090        -3.917183
 C         2.470695        -0.324474        -3.228094
 C         2.265222         1.105469        -3.863465
 C         1.187311         0.396407        -3.052949
 O         0.894945         0.640539        -1.658520
 C         2.152590         0.538336        -0.995196
 C         2.995191        -0.430950        -1.739269
 C         2.050706         0.421957         0.535186
 O         3.015195         0.659138         1.267537
 H         3.747428        -2.048254        -4.138175
 H         2.079290        -2.432569        -3.350543
 H         2.196891        -1.639177        -4.953664
 H         2.773962         2.050283        -3.539664
 H         1.991177         1.108400        -4.865689
 H         0.313157         0.297101        -3.711875
 H         2.770500         1.465217        -1.254751
 H         4.159567        -0.389999        -1.642439
 H         2.779741        -1.487073        -1.406665
 H         1.096824         0.318464         0.915258
