19
Iteration:  4776
 C         2.492612        -1.764377        -3.882474
 C         2.391310        -0.416529        -3.152014
 C         2.199265         0.817713        -4.014000
 C         1.152620         0.433573        -2.931381
 O         1.180224         1.051344        -1.651200
 C         2.442602         0.686861        -0.948309
 C         3.190877        -0.289954        -1.925252
 C         1.916557         0.211278         0.435470
 O         2.686177         0.581593         1.386026
 H         3.507373        -1.770654        -4.443166
 H         2.222306        -2.604985        -3.212479
 H         1.814552        -1.537148        -4.748402
 H         2.825923         1.674337        -3.766536
 H         2.108441         0.528309        -5.022667
 H         0.240463         0.091263        -3.274290
 H         2.991328         1.629206        -0.768447
 H         4.235230         0.124234        -2.150520
 H         3.338297        -1.213287        -1.313287
 H         1.046798        -0.439659         0.625245
