19
Iteration:   853
 C         2.411650        -1.757331        -3.887737
 C         2.503762        -0.369995        -3.145548
 C         2.464146         1.074301        -3.792617
 C         1.211057         0.480824        -3.052987
 O         0.956804         0.712787        -1.663459
 C         2.285245         0.753317        -1.012923
 C         3.069780        -0.384915        -1.763600
 C         2.026288         0.280072         0.374397
 O         2.806061         0.610317         1.256118
 H         1.567972        -2.364539        -3.577189
 H         2.125841        -1.684008        -4.925059
 H         3.332004        -2.391487        -3.735636
 H         3.119422         1.780551        -3.285117
 H         2.411288         0.989026        -4.873637
 H         0.258651         0.378235        -3.608343
 H         2.673630         1.745110        -1.084102
 H         4.152469        -0.118288        -1.775808
 H         3.052228        -1.364563        -1.262963
 H         1.063279        -0.309453         0.678178
