19
Iteration:   959charge 0 multiplicity 1
 C         2.626312        -1.695438        -3.835727
 C         2.408175        -0.418095        -3.071816
 C         2.208877         0.926001        -3.883103
 C         1.109335         0.306099        -2.942721
 O         1.068012         1.031331        -1.745635
 C         2.288990         0.764810        -1.037701
 C         3.121559        -0.295869        -1.773751
 C         1.980024         0.421239         0.422040
 O         2.843967         0.316753         1.223735
 H         1.778518        -1.855941        -4.565180
 H         3.694507        -1.775490        -4.199930
 H         2.518242        -2.536712        -3.220924
 H         2.792609         1.778646        -3.631476
 H         2.196713         0.830325        -4.923086
 H         0.191294        -0.023773        -3.398337
 H         2.873236         1.733424        -0.941976
 H         4.146834        -0.071224        -1.940454
 H         3.067441        -1.316631        -1.325130
 H         0.855124         0.306117         0.629674
