19
Iteration:  2389charge 0 multiplicity 1
 C         2.649175        -1.836495        -3.864519
 C         2.415682        -0.419930        -3.146848
 C         2.210900         0.937495        -3.938414
 C         1.146382         0.357795        -3.024140
 O         0.956730         0.787024        -1.605890
 C         2.267897         0.901184        -1.051923
 C         3.173043        -0.211932        -1.770911
 C         2.044188         0.685551         0.484864
 O         2.818942         0.174898         1.234831
 H         3.760839        -2.004429        -3.985041
 H         2.400576        -2.675663        -3.087774
 H         2.197116        -1.832253        -4.874191
 H         2.732303         1.847442        -3.656377
 H         2.063817         0.843995        -5.013237
 H         0.110466         0.194666        -3.328265
 H         2.734435         1.903319        -1.063653
 H         4.203999         0.155569        -2.025183
 H         3.100221        -1.277306        -1.351963
 H         1.020226         1.217994         0.727962
