19
Iteration:  3675
 C         2.631023        -1.591535        -4.078095
 C         2.519798        -0.385277        -3.204857
 C         2.220893         1.005740        -3.734565
 C         1.133507         0.273175        -3.051920
 O         0.983075         0.739640        -1.620763
 C         2.314391         0.641439        -0.966723
 C         2.958849        -0.581836        -1.766619
 C         2.095708         0.360473         0.433219
 O         2.857003         0.836199         1.317800
 H         3.672792        -1.758463        -4.497129
 H         2.198388        -2.578398        -3.710727
 H         1.971602        -1.318259        -4.894170
 H         2.646368         2.021058        -3.359462
 H         2.163448         1.100769        -4.756314
 H         0.118965         0.094637        -3.564463
 H         2.887581         1.638909        -1.051069
 H         4.056130        -0.399058        -1.651134
 H         2.689176        -1.604782        -1.377474
 H         1.291613        -0.328139         0.810496
