19
Iteration:  2402
 C         2.639474        -1.733279        -3.899860
 C         2.483806        -0.422285        -3.127449
 C         2.235567         0.872997        -3.875167
 C         1.141719         0.329732        -2.894541
 O         0.972278         0.769419        -1.602564
 C         2.288850         0.828107        -1.058621
 C         3.118680        -0.188496        -1.748279
 C         2.069384         0.755361         0.407687
 O         2.772362         0.184332         1.164482
 H         3.638373        -1.978121        -4.124768
 H         2.045300        -2.678936        -3.542406
 H         2.064904        -1.603648        -4.877116
 H         2.977625         1.610997        -3.663193
 H         1.829500         0.804906        -4.972203
 H         0.306028        -0.172089        -3.446783
 H         2.654217         1.788598        -1.426948
 H         4.195701         0.205997        -1.692100
 H         3.161381        -1.015163        -1.056900
 H         1.106884         1.201264         0.830377
