19
Iteration:  2608charge 0 multiplicity 1
 C         2.580094        -1.803358        -3.629617
 C         2.457715        -0.359887        -3.151959
 C         2.199164         0.907633        -3.968793
 C         1.101305         0.442972        -2.990098
 O         0.998802         0.983930        -1.696092
 C         2.267386         0.764194        -1.004030
 C         3.167862        -0.129276        -1.857784
 C         2.018130         0.264539         0.349060
 O         2.861924         0.323131         1.250186
 H         3.759252        -1.945959        -3.716284
 H         2.134526        -2.545708        -2.881752
 H         2.053717        -2.015339        -4.597385
 H         2.884452         1.761261        -3.971468
 H         2.015110         0.738352        -4.982224
 H         0.172536         0.045245        -3.374469
 H         2.780339         1.775738        -0.914306
 H         4.262306         0.199918        -1.942831
 H         3.262404        -1.084938        -1.271888
 H         1.026893        -0.138940         0.483836
