19
Iteration:  2867
 C         2.610251        -1.603070        -4.154056
 C         2.402916        -0.483423        -3.106605
 C         2.298942         0.964522        -3.697680
 C         1.167865         0.338975        -3.024569
 O         0.901441         0.727400        -1.691520
 C         2.242057         0.691963        -1.017404
 C         3.015483        -0.460263        -1.644264
 C         2.132354         0.393583         0.394813
 O         2.922064         0.720232         1.303414
 H         3.594754        -1.444832        -4.540751
 H         2.528027        -2.606964        -3.711335
 H         1.827646        -1.615434        -4.900750
 H         2.742053         1.795234        -3.178649
 H         2.213529         1.078652        -4.831913
 H         0.209457         0.448600        -3.585924
 H         2.691351         1.672815        -1.146957
 H         4.050738        -0.212333        -1.715106
 H         2.891250        -1.385495        -1.121412
 H         1.261572        -0.258137         0.605387
