19
Iteration:  3336
 C         2.795838        -1.743131        -3.535153
 C         2.322053        -0.367462        -3.112768
 C         2.072916         0.739865        -4.090987
 C         1.091367         0.326072        -2.885790
 O         1.077258         0.922020        -1.600846
 C         2.347298         1.031717        -1.023099
 C         3.187963         0.125564        -1.929636
 C         2.066636         0.545653         0.399831
 O         2.704082        -0.174568         1.110238
 H         3.858935        -1.762588        -3.473738
 H         2.436972        -2.503929        -2.758597
 H         2.243713        -1.850053        -4.395800
 H         2.738784         1.688800        -4.067049
 H         1.710779         0.591081        -5.050522
 H         0.162574        -0.178926        -3.184169
 H         2.844433         2.054120        -1.000055
 H         3.868623         0.767067        -2.551287
 H         3.729933        -0.784185        -1.494166
 H         0.915689         0.841518         0.615117
