19
Iteration:  3974
 C         2.631443        -1.735553        -3.736322
 C         2.436463        -0.371156        -3.105036
 C         2.135234         0.962770        -3.977668
 C         1.172871         0.340941        -2.983406
 O         1.037955         1.006983        -1.694872
 C         2.260277         0.818570        -1.049293
 C         3.070331        -0.235458        -1.761089
 C         2.027780         0.318011         0.371490
 O         2.921572         0.303670         1.243997
 H         3.642475        -2.085129        -3.674905
 H         1.978293        -2.504495        -3.194229
 H         2.213273        -1.789345        -4.807962
 H         2.683136         1.894808        -3.764036
 H         2.010753         0.683951        -5.018424
 H         0.213321        -0.124257        -3.411791
 H         2.719125         1.859616        -1.045735
 H         4.162006        -0.238298        -1.753318
 H         2.884383        -1.276622        -1.325113
 H         0.958741         0.177613         0.763872
