19
Iteration:  3618
 C         2.620376        -1.620372        -4.088163
 C         2.389824        -0.412314        -3.174046
 C         2.335899         0.928410        -3.742411
 C         1.077025         0.335270        -2.936159
 O         0.946093         0.712637        -1.643889
 C         2.201728         0.656192        -1.003068
 C         3.132340        -0.422710        -1.756320
 C         2.036544         0.474140         0.409048
 O         2.928921         0.650356         1.261330
 H         3.712723        -1.855353        -4.301940
 H         2.087294        -2.539274        -3.837999
 H         2.309377        -1.369467        -5.104278
 H         2.818588         1.699886        -3.296777
 H         2.124000         1.005414        -4.812849
 H         0.281776        -0.149760        -3.438257
 H         2.644146         1.699215        -0.870584
 H         4.105683         0.070492        -1.765204
 H         3.091061        -1.307801        -1.079607
 H         0.925278         0.414405         0.784811
