19
Iteration:   398charge 0 multiplicity 1
 C         2.465222        -1.749300        -3.903302
 C         2.451714        -0.395689        -3.120101
 C         2.351826         0.931080        -3.831129
 C         1.150714         0.327640        -3.005402
 O         1.022805         0.826907        -1.729817
 C         2.330354         0.817361        -1.058466
 C         3.162834        -0.249468        -1.757522
 C         1.987577         0.470177         0.375302
 O         2.790465         0.381617         1.343119
 H         1.832819        -2.433836        -3.215074
 H         1.866268        -1.770332        -4.879775
 H         3.406361        -2.121513        -4.107404
 H         2.860658         1.801919        -3.393098
 H         2.493079         0.980273        -4.874766
 H         0.260534        -0.007518        -3.596495
 H         2.696138         1.887388        -1.074669
 H         4.216292         0.174448        -1.876984
 H         3.185636        -1.121274        -1.023777
 H         0.993123         0.189826         0.498269
