19
Iteration:  3648charge 0 multiplicity 1
 C         2.680465        -1.635012        -4.057210
 C         2.395274        -0.358262        -3.300548
 C         2.291901         1.059443        -3.803676
 C         1.126766         0.352971        -2.988233
 O         0.992660         0.599266        -1.631719
 C         2.253015         0.661358        -0.983537
 C         2.963846        -0.591348        -1.847411
 C         2.085670         0.515015         0.508574
 O         2.902489         0.752327         1.426659
 H         3.772558        -1.866944        -4.156313
 H         2.101268        -2.436656        -3.630169
 H         2.340993        -1.652806        -5.164743
 H         2.799687         1.936780        -3.572415
 H         1.914605         1.125199        -4.938779
 H         0.187231         0.096425        -3.434720
 H         2.712319         1.632645        -1.121146
 H         4.062604        -0.311565        -1.821898
 H         2.686507        -1.563142        -1.386150
 H         1.164408         0.107689         0.842021
