19
Iteration:  4723
 C         2.394303        -1.743288        -3.806637
 C         2.423974        -0.382209        -3.144372
 C         2.283194         0.880720        -3.885333
 C         1.141213         0.387504        -2.983609
 O         1.093621         0.947486        -1.709263
 C         2.394718         0.780020        -1.037876
 C         3.184888        -0.234855        -1.789534
 C         2.167766         0.165910         0.269927
 O         2.661603         0.565190         1.358349
 H         3.462821        -2.138053        -3.775435
 H         1.798809        -2.272260        -3.063361
 H         1.777491        -1.754104        -4.754961
 H         2.621518         1.765238        -3.384578
 H         2.133986         0.947395        -4.893476
 H         0.297212         0.060025        -3.477180
 H         2.809586         1.738452        -0.939562
 H         4.267900        -0.077500        -1.812286
 H         3.127856        -1.237395        -1.242088
 H         1.364873        -0.729360         0.146468
