19
Iteration:  3170charge 0 multiplicity 1
 C         2.561911        -1.739498        -3.704733
 C         2.490921        -0.344382        -2.988749
 C         2.056391         0.726815        -3.996382
 C         1.146271         0.147459        -2.863186
 O         1.021628         0.973594        -1.764129
 C         2.242650         1.113030        -1.018465
 C         3.321639         0.198949        -1.774828
 C         2.025053         0.468979         0.426642
 O         2.841979        -0.142926         1.040962
 H         3.601354        -2.115745        -3.684466
 H         1.959282        -2.519775        -3.168570
 H         2.058962        -1.664803        -4.689904
 H         2.351080         1.780356        -3.813922
 H         1.979688         0.496932        -5.035153
 H         0.326865        -0.517422        -3.069851
 H         2.592658         2.152036        -0.950329
 H         4.225100         0.836824        -2.057243
 H         3.622529        -0.694350        -1.125497
 H         0.954611         0.823754         0.852994
