19
Iteration:  4474charge 0 multiplicity 1
 C         2.631769        -1.696706        -3.959829
 C         2.376759        -0.462006        -3.182377
 C         2.276822         0.894611        -3.893002
 C         1.115292         0.413314        -3.000754
 O         1.041681         0.916834        -1.708896
 C         2.341230         0.691124        -0.960238
 C         3.004326        -0.424254        -1.783459
 C         2.004473         0.511050         0.458097
 O         2.891255         0.473362         1.384917
 H         3.628723        -1.746903        -4.409733
 H         2.457975        -2.487432        -3.190849
 H         1.912900        -1.900022        -4.828182
 H         2.728143         1.857233        -3.736294
 H         2.045551         0.910395        -4.965698
 H         0.065020         0.349817        -3.485245
 H         2.941132         1.619772        -1.116363
 H         4.030486        -0.214768        -1.953270
 H         2.985133        -1.416384        -1.312483
 H         0.898620         0.401086         0.708335
