19
Iteration:  3687charge 0 multiplicity 1
 C         2.595841        -1.522758        -4.159826
 C         2.419420        -0.439964        -3.092159
 C         2.291900         0.982555        -3.737576
 C         1.158968         0.318608        -2.932241
 O         1.008347         0.775579        -1.679153
 C         2.219178         0.612223        -1.045942
 C         3.038598        -0.543935        -1.702134
 C         2.100560         0.300444         0.431796
 O         2.838775         0.858466         1.272667
 H         3.614780        -1.697782        -4.540080
 H         2.330839        -2.429782        -3.525946
 H         1.959152        -1.488243        -5.064015
 H         2.641215         1.949130        -3.238683
 H         2.183264         0.903488        -4.807238
 H         0.204809        -0.156365        -3.294391
 H         2.883360         1.539734        -1.170132
 H         4.116422        -0.378980        -1.701996
 H         2.843179        -1.551671        -1.244928
 H         1.399474        -0.566386         0.612515
