19
Iteration:   229charge 0 multiplicity 1
 C         2.358845        -1.657053        -4.031097
 C         2.437186        -0.367073        -3.231700
 C         2.283217         1.014342        -3.817958
 C         1.193226         0.464667        -2.924263
 O         1.229161         0.633160        -1.473844
 C         2.568248         0.518540        -0.994964
 C         3.203971        -0.474425        -1.980234
 C         2.257365         0.175674         0.441471
 O         2.219243         1.029435         1.318267
 H         1.974072        -2.470762        -3.350703
 H         1.895871        -1.509479        -4.923728
 H         3.350773        -2.019012        -4.261706
 H         2.882311         1.922791        -3.554231
 H         2.192619         1.139317        -4.888731
 H         0.152282         0.094423        -3.068068
 H         3.060281         1.478278        -1.064434
 H         4.224732        -0.176305        -2.194686
 H         3.113274        -1.568668        -1.642212
 H         1.968264        -0.833328         0.573576
