19
Iteration:  3498
 C         2.618017        -1.687072        -3.847014
 C         2.525562        -0.397178        -3.018896
 C         2.043353         0.855378        -4.005630
 C         1.134830         0.234523        -2.924342
 O         1.057027         0.944070        -1.719518
 C         2.263306         0.898445        -1.010299
 C         3.269062        -0.033754        -1.674304
 C         1.998598         0.437502         0.330191
 O         2.833363         0.173928         1.237007
 H         3.528690        -2.266981        -4.186309
 H         2.188233        -2.568603        -3.301709
 H         1.942439        -1.541917        -4.672779
 H         2.191565         1.887078        -4.021600
 H         1.790874         0.431648        -4.971159
 H         0.185479        -0.296632        -3.032298
 H         2.632440         1.960751        -1.026229
 H         4.169568         0.496429        -1.993970
 H         3.545037        -0.917569        -1.073434
 H         0.978597        -0.027281         0.465298
