19
Iteration:  1234charge 0 multiplicity 1
 C         2.628404        -1.670464        -4.043395
 C         2.478372        -0.449984        -3.220719
 C         2.297195         0.946954        -3.812836
 C         1.067193         0.444039        -2.962247
 O         0.977245         0.729961        -1.632515
 C         2.312654         0.720558        -1.054169
 C         2.899569        -0.465882        -1.800697
 C         2.119562         0.450001         0.451912
 O         2.900516         0.688625         1.404548
 H         3.601171        -1.564441        -4.703681
 H         2.665729        -2.549824        -3.385533
 H         1.926552        -1.701266        -4.809080
 H         2.903902         1.823710        -3.484383
 H         2.008724         0.897457        -4.880516
 H         0.200783         0.340754        -3.491911
 H         2.853473         1.629741        -1.221763
 H         3.999675        -0.646132        -1.616449
 H         2.549874        -1.520194        -1.380592
 H         1.236666        -0.360689         0.597017
