19
Iteration:  4010charge 0 multiplicity 1
 C         2.546891        -1.768609        -3.941392
 C         2.376138        -0.484588        -3.063481
 C         2.312704         0.895417        -3.861849
 C         1.174998         0.386008        -3.029173
 O         0.892345         0.884469        -1.661955
 C         2.187553         0.842920        -1.079874
 C         3.131416        -0.182426        -1.778019
 C         2.066020         0.429655         0.454050
 O         2.962169         0.319353         1.292080
 H         3.622049        -2.139068        -3.970955
 H         1.923494        -2.593830        -3.638975
 H         2.443029        -1.436132        -4.955284
 H         3.056645         1.622070        -3.572510
 H         2.198937         0.730037        -4.995172
 H         0.220024         0.167118        -3.426904
 H         2.686920         1.846779        -0.974703
 H         4.158983         0.220300        -2.040491
 H         3.105102        -0.969543        -1.057812
 H         0.986509         0.604575         0.811498
