19
Iteration:  2535charge 0 multiplicity 1
 C         2.539733        -1.706391        -3.872269
 C         2.498113        -0.358294        -2.984113
 C         2.164690         0.820902        -3.875427
 C         1.208300         0.257712        -2.894691
 O         1.043317         0.861658        -1.768485
 C         2.264103         0.929196        -1.051001
 C         3.160923        -0.155829        -1.680956
 C         1.958503         0.501320         0.422792
 O         2.872889         0.242116         1.124104
 H         3.414461        -1.895452        -4.389147
 H         2.103640        -2.552617        -3.272514
 H         1.754772        -1.523677        -4.674812
 H         2.674653         1.881778        -3.783571
 H         2.134891         0.683341        -4.933901
 H         0.391994        -0.270891        -3.342264
 H         2.736292         1.912785        -1.159307
 H         4.247909         0.000087        -1.681684
 H         3.058818        -1.101481        -1.235542
 H         0.921160         0.477931         0.670432
