19
Iteration:  3850
 C         2.569324        -1.714014        -3.733394
 C         2.403159        -0.399688        -3.198207
 C         2.106264         0.953257        -4.041516
 C         1.181486         0.395150        -2.951641
 O         1.107299         0.969321        -1.653600
 C         2.419840         0.754704        -1.015672
 C         3.171778        -0.215886        -1.838423
 C         2.074390         0.142651         0.353381
 O         2.672540         0.496053         1.319585
 H         3.627152        -2.040837        -3.908617
 H         2.208770        -2.288925        -2.849864
 H         1.972529        -1.849706        -4.628007
 H         2.697319         1.721426        -3.669377
 H         1.652227         0.921000        -5.119403
 H         0.218559         0.021741        -3.193087
 H         3.086730         1.622443        -0.843156
 H         4.248615         0.009930        -1.831848
 H         3.007083        -1.192843        -1.293490
 H         1.312795        -0.614173         0.444578
