19
Iteration:   290
 C         2.384547        -1.607030        -4.084689
 C         2.372919        -0.422311        -3.189742
 C         2.302384         0.873577        -3.817325
 C         1.133652         0.305708        -2.801106
 O         1.246074         0.867676        -1.555837
 C         2.645631         0.703252        -1.047891
 C         3.225430        -0.450318        -1.942283
 C         2.269195         0.205891         0.409298
 O         2.183956         0.862328         1.376772
 H         2.180982        -2.558678        -3.499233
 H         1.517109        -1.706629        -4.845418
 H         3.426640        -1.643847        -4.573792
 H         2.954138         1.613905        -3.434503
 H         1.937036         0.844274        -4.817045
 H         0.228032         0.102722        -3.343557
 H         3.128618         1.720597        -1.101688
 H         4.317790        -0.430342        -2.055896
 H         3.036721        -1.373557        -1.463256
 H         2.001338        -0.795928         0.357645
