19
Iteration:  2571charge 0 multiplicity 1
 C         2.531656        -1.848052        -3.656122
 C         2.438181        -0.395507        -3.191463
 C         2.255589         0.967641        -3.917998
 C         1.184767         0.435743        -3.027318
 O         0.909762         0.897435        -1.744730
 C         2.232815         0.783999        -1.050727
 C         3.199282        -0.080800        -1.865315
 C         2.039048         0.395924         0.449132
 O         2.908645         0.260135         1.299883
 H         3.633646        -2.243175        -3.818588
 H         2.102309        -2.573165        -3.009009
 H         2.060809        -1.905061        -4.651767
 H         2.978444         1.739782        -3.647740
 H         1.948510         0.643297        -4.967013
 H         0.243642         0.040724        -3.472636
 H         2.515341         1.833112        -0.908206
 H         4.106046         0.436639        -1.998293
 H         3.340524        -1.030945        -1.304627
 H         1.025369         0.170194         0.670834
