19
Iteration:  3674charge 0 multiplicity 1
 C         2.626685        -1.601594        -4.069362
 C         2.527716        -0.375943        -3.210748
 C         2.208926         1.007527        -3.740068
 C         1.133391         0.272891        -3.059919
 O         0.979031         0.733463        -1.613852
 C         2.321432         0.640782        -0.970381
 C         2.956342        -0.575790        -1.772617
 C         2.089024         0.358656         0.434124
 O         2.864115         0.837922         1.329474
 H         3.683574        -1.746525        -4.504844
 H         2.205222        -2.591619        -3.728006
 H         2.015724        -1.324024        -4.921743
 H         2.657444         1.986396        -3.342318
 H         2.178871         1.106752        -4.754309
 H         0.139595         0.124421        -3.608779
 H         2.913328         1.618808        -1.039670
 H         4.072154        -0.409143        -1.642135
 H         2.637095        -1.587519        -1.386566
 H         1.271273        -0.290427         0.813221
