19
Iteration:  4397
 C         2.427113        -1.785951        -3.930351
 C         2.476950        -0.487811        -3.175063
 C         2.306837         0.891072        -3.969377
 C         1.138561         0.399127        -3.028057
 O         1.041589         0.979424        -1.637389
 C         2.279087         0.771070        -0.927542
 C         3.135273        -0.216155        -1.826438
 C         2.088758         0.190809         0.418415
 O         2.778006         0.592277         1.439631
 H         3.434928        -2.194507        -4.262727
 H         1.901096        -2.587299        -3.363494
 H         1.751016        -1.648446        -4.827429
 H         3.111522         1.634753        -3.716897
 H         2.104766         0.788948        -5.029701
 H         0.239203         0.429172        -3.720428
 H         2.800524         1.739033        -0.914073
 H         4.098656         0.152203        -2.117968
 H         3.508695        -1.212091        -1.437294
 H         1.328046        -0.644258         0.489079
