19
Iteration:  4034charge 0 multiplicity 1
 C         2.515698        -1.760959        -3.912718
 C         2.441538        -0.375332        -3.106373
 C         2.276102         0.972793        -3.798800
 C         1.182251         0.355885        -3.057478
 O         0.971857         0.804522        -1.678992
 C         2.240565         0.691832        -0.971270
 C         3.178019        -0.288092        -1.778371
 C         1.927256         0.588206         0.460317
 O         2.956590         0.370426         1.177983
 H         3.534895        -2.227412        -4.178302
 H         1.976098        -2.404080        -3.257476
 H         2.104312        -1.607963        -4.864841
 H         2.675162         1.908883        -3.210302
 H         2.209805         1.106555        -4.863048
 H         0.293978        -0.096735        -3.406377
 H         2.771116         1.686700        -1.025240
 H         4.239922        -0.019245        -1.947270
 H         2.967125        -1.303421        -1.484083
 H         0.864336         0.681394         0.887954
