19
Iteration:   694
 C         2.439602        -1.716111        -3.898073
 C         2.477913        -0.400423        -3.133608
 C         2.474129         0.925090        -3.810758
 C         1.182738         0.399388        -3.033332
 O         0.974632         0.790238        -1.700226
 C         2.203249         0.766047        -1.035834
 C         3.107978        -0.324855        -1.739846
 C         1.957987         0.488373         0.468805
 O         2.872297         0.432866         1.214911
 H         1.757141        -2.544240        -3.497777
 H         2.336800        -1.406627        -5.020413
 H         3.381286        -2.252065        -3.720411
 H         2.962991         1.816067        -3.307165
 H         2.326538         1.029545        -4.886042
 H         0.334956         0.121330        -3.609710
 H         2.741186         1.767943        -0.997955
 H         4.170861        -0.048362        -1.648247
 H         3.011627        -1.303958        -1.340205
 H         0.928229         0.338624         0.643749
