19
Iteration:  2184charge 0 multiplicity 1
 C         2.564665        -1.709482        -3.620745
 C         2.369631        -0.410117        -3.092244
 C         2.084417         0.724108        -4.045232
 C         1.076954         0.383438        -2.902968
 O         1.204683         1.067608        -1.626728
 C         2.393287         0.873746        -0.986546
 C         3.284145        -0.047516        -1.910940
 C         2.077978         0.137163         0.198849
 O         2.594206         0.348596         1.319793
 H         3.454391        -1.750488        -4.192909
 H         2.533586        -2.545706        -2.877578
 H         1.924140        -1.997037        -4.489913
 H         2.647969         1.821130        -3.878608
 H         1.901984         0.532672        -5.120840
 H         0.163046        -0.140015        -3.074076
 H         2.830916         1.897555        -0.784182
 H         4.331048         0.429508        -2.160670
 H         3.528561        -0.960279        -1.410056
 H         1.309398        -0.615849        -0.115546
