19
Iteration:   582charge 0 multiplicity 1
 C         2.505807        -1.624969        -3.957564
 C         2.448271        -0.411117        -3.156869
 C         2.277431         0.837239        -3.906518
 C         1.208786         0.291041        -2.907148
 O         1.133625         0.867244        -1.658297
 C         2.382812         0.817899        -1.080321
 C         3.174957        -0.343693        -1.852773
 C         1.969266         0.575142         0.439311
 O         2.625427         0.336739         1.385237
 H         2.377164        -2.489939        -3.267263
 H         1.855336        -1.657403        -4.839107
 H         3.583049        -1.791897        -4.461680
 H         2.730247         1.652641        -3.445891
 H         2.182698         0.865634        -4.990514
 H         0.193030        -0.053836        -3.279685
 H         2.950175         1.809385        -1.150697
 H         4.254180        -0.102518        -1.845061
 H         2.947054        -1.198900        -1.279086
 H         0.799173         0.740534         0.656358
