19
Iteration:   295charge 0 multiplicity 1
 C         2.413626        -1.640649        -4.063770
 C         2.339048        -0.427367        -3.134730
 C         2.274084         0.885180        -3.832525
 C         1.187880         0.351120        -2.811764
 O         1.221362         0.883448        -1.533337
 C         2.637764         0.720381        -1.071452
 C         3.195525        -0.472727        -1.955929
 C         2.273736         0.207015         0.374795
 O         2.199036         0.848737         1.374359
 H         2.445663        -2.562433        -3.501925
 H         1.658988        -1.618893        -4.823028
 H         3.401660        -1.694848        -4.541470
 H         2.942362         1.730984        -3.506935
 H         2.043164         0.882432        -4.926456
 H         0.194328         0.044116        -3.244552
 H         3.149755         1.665137        -1.058992
 H         4.286276        -0.416228        -2.074840
 H         2.913477        -1.497358        -1.419783
 H         1.989754        -0.964007         0.260249
