19
Iteration:   465charge 0 multiplicity 1
 C         2.763279        -1.660193        -3.789783
 C         2.356368        -0.461412        -3.017126
 C         2.347411         0.922339        -3.770480
 C         1.175030         0.340134        -3.060456
 O         0.867681         0.963176        -1.875012
 C         2.163781         0.877227        -1.081145
 C         2.868956        -0.317343        -1.549174
 C         2.102698         0.639824         0.487857
 O         2.994112         0.102014         1.047711
 H         2.550266        -2.579626        -3.128379
 H         2.315185        -1.809848        -4.850681
 H         3.797988        -1.639294        -3.958254
 H         3.121267         1.618030        -3.538297
 H         2.209352         0.851672        -4.873981
 H         0.236815        -0.001795        -3.609832
 H         2.756403         1.786099        -1.341774
 H         3.988719        -0.222615        -1.398405
 H         2.447457        -1.265369        -1.028031
 H         1.079546         0.867827         0.977610
