19
Iteration:  3623
 C         2.653125        -1.611554        -4.087606
 C         2.368902        -0.442905        -3.162975
 C         2.300657         0.917102        -3.776087
 C         1.099636         0.405453        -2.949616
 O         0.923195         0.685265        -1.620801
 C         2.240595         0.592787        -1.038691
 C         3.147574        -0.407050        -1.775471
 C         2.065559         0.489090         0.477163
 O         2.896355         0.669614         1.271918
 H         3.684387        -1.836738        -4.263133
 H         2.026943        -2.493441        -3.823238
 H         2.360692        -1.473698        -5.155253
 H         2.902995         1.802861        -3.287139
 H         2.178879         1.057756        -4.854610
 H         0.192094        -0.046910        -3.442290
 H         2.591948         1.639346        -1.021783
 H         4.182152        -0.026557        -1.733375
 H         2.858727        -1.307318        -1.218291
 H         1.020679         0.429940         0.805970
