19
Iteration:   747
 C         2.583226        -1.656710        -4.160653
 C         2.420571        -0.454560        -3.178803
 C         2.218952         0.975831        -3.827342
 C         1.203287         0.307331        -3.004213
 O         1.142721         0.852561        -1.655614
 C         2.458350         0.715753        -1.045863
 C         3.035972        -0.589414        -1.804859
 C         2.009912         0.590932         0.498825
 O         2.664669         0.587215         1.523007
 H         2.377232        -2.462843        -3.479019
 H         1.858098        -1.587389        -4.964020
 H         3.541359        -1.850723        -4.801840
 H         2.987605         1.802860        -3.688571
 H         2.019876         0.915001        -4.914487
 H         0.229457         0.056160        -3.336334
 H         3.045150         1.703251        -1.095409
 H         4.167102        -0.631388        -1.898163
 H         2.556598        -1.376171        -1.264007
 H         0.763939         0.469463         0.513584
