19
Iteration:  1111charge 0 multiplicity 1
 C         2.655159        -1.665936        -3.961062
 C         2.453346        -0.426352        -3.188351
 C         2.045292         0.925479        -3.846528
 C         1.106424         0.296946        -2.913409
 O         1.093517         1.010854        -1.742807
 C         2.344947         0.717601        -1.012146
 C         3.156165        -0.401450        -1.765039
 C         1.980544         0.446840         0.465851
 O         2.847494         0.432855         1.290731
 H         3.694428        -1.895210        -3.895177
 H         2.205155        -2.564241        -3.477787
 H         2.226056        -1.566347        -4.953141
 H         2.312686         1.888551        -3.556782
 H         1.942272         0.744559        -4.947305
 H         0.109836        -0.173042        -3.352042
 H         2.984081         1.553618        -0.881750
 H         4.235353        -0.230983        -1.818495
 H         3.014164        -1.470588        -1.266329
 H         0.946274         0.642239         0.690268
