19
Iteration:  4299charge 0 multiplicity 1
 C         2.462134        -1.667795        -4.006133
 C         2.305819        -0.553397        -3.110713
 C         2.205502         0.851235        -3.922758
 C         1.125462         0.370420        -2.915710
 O         1.174008         1.089258        -1.706475
 C         2.434089         0.726096        -0.994897
 C         3.242975        -0.361232        -1.879584
 C         2.046438         0.206839         0.404864
 O         2.639321         0.631623         1.454699
 H         3.492943        -1.613262        -4.398116
 H         2.517131        -2.622947        -3.466747
 H         1.724366        -1.622608        -4.824912
 H         2.717752         1.841904        -3.788658
 H         1.952883         0.517439        -4.872424
 H         0.189936         0.124270        -3.274952
 H         2.958686         1.592071        -0.675045
 H         4.164626         0.093422        -2.235879
 H         3.604357        -1.308443        -1.351739
 H         1.414632        -0.648313         0.684337
