19
Iteration:  3370
 C         2.685793        -1.752438        -3.612668
 C         2.550362        -0.376828        -3.020152
 C         2.047683         0.786793        -3.975292
 C         1.154916         0.201904        -2.902805
 O         0.943639         1.092875        -1.768495
 C         2.196924         0.954565        -1.008313
 C         3.278935         0.096674        -1.773937
 C         2.005698         0.553962         0.406345
 O         2.855775        -0.161554         0.996553
 H         3.526815        -2.110085        -4.152754
 H         2.371837        -2.394136        -2.764688
 H         1.911807        -1.949071        -4.333198
 H         2.431770         1.821957        -3.748575
 H         1.829546         0.534363        -5.014087
 H         0.340850        -0.489347        -3.098473
 H         2.520437         2.029504        -0.967520
 H         4.161675         0.726143        -1.942122
 H         3.670059        -0.843557        -1.300739
 H         1.026917         0.926032         0.962657
