19
Iteration:   736charge 0 multiplicity 1
 C         2.524249        -1.670334        -4.115732
 C         2.494644        -0.457107        -3.252963
 C         2.273896         0.918501        -3.892172
 C         1.197919         0.345366        -2.973281
 O         1.114913         0.822708        -1.654150
 C         2.421448         0.682660        -0.985986
 C         3.034450        -0.466139        -1.855461
 C         1.994829         0.608171         0.533145
 O         2.683901         0.570438         1.508106
 H         2.137665        -2.609374        -3.709948
 H         1.861379        -1.456925        -4.936232
 H         3.614427        -1.894956        -4.411487
 H         2.660503         1.817991        -3.337184
 H         2.172829         0.946027        -4.978106
 H         0.293376        -0.029608        -3.346630
 H         3.155366         1.558718        -1.072712
 H         4.157362        -0.598328        -1.803880
 H         2.722720        -1.409973        -1.493265
 H         0.773860         0.597419         0.607348
