19
Iteration:  2169charge 0 multiplicity 1
 C         2.603948        -1.820530        -3.642718
 C         2.403527        -0.352903        -3.146414
 C         2.019071         0.851466        -4.069303
 C         1.127585         0.379566        -2.927621
 O         1.132388         1.077467        -1.730116
 C         2.490132         0.871628        -1.049798
 C         3.264173        -0.048648        -1.968788
 C         2.096881         0.124047         0.305473
 O         2.574717         0.327806         1.482409
 H         3.611288        -1.894267        -4.073315
 H         2.540879        -2.447712        -2.706090
 H         1.794257        -2.201345        -4.208589
 H         2.549076         1.709446        -3.974613
 H         1.593027         0.493414        -5.022658
 H         0.077835         0.077453        -3.125036
 H         3.066990         1.753860        -0.830920
 H         4.198682         0.376223        -2.231215
 H         3.539395        -0.987521        -1.403557
 H         1.272560        -0.669495         0.191890
