19
Iteration:  3809
 C         2.529865        -1.738691        -3.985545
 C         2.339810        -0.470701        -3.121295
 C         2.216611         0.847117        -3.931238
 C         1.081792         0.311644        -2.911981
 O         1.083154         0.993570        -1.708420
 C         2.357027         0.790157        -1.023265
 C         3.202722        -0.201444        -1.826399
 C         2.222076         0.197090         0.372249
 O         2.658023         0.574762         1.498432
 H         3.547058        -2.039276        -4.014972
 H         1.774050        -2.522021        -3.758907
 H         2.369190        -1.326391        -5.038066
 H         2.960448         1.357670        -3.379476
 H         1.952333         1.009728        -5.039224
 H         0.163293         0.104191        -3.390344
 H         2.657196         1.872973        -0.987303
 H         4.110306         0.242192        -2.150102
 H         3.353210        -1.201140        -1.363502
 H         1.476418        -0.665323         0.284736
