19
Iteration:   385charge 0 multiplicity 1
 C         2.403637        -1.717844        -3.966333
 C         2.509436        -0.444253        -3.202736
 C         2.350067         0.892642        -3.919947
 C         1.239954         0.283764        -2.939712
 O         1.033774         0.856366        -1.631338
 C         2.340985         0.828202        -1.009367
 C         3.178785        -0.220402        -1.766040
 C         2.027044         0.410553         0.381398
 O         2.664134         0.473819         1.368080
 H         1.803557        -2.587437        -3.426781
 H         1.930579        -1.451583        -4.894371
 H         3.361756        -2.123118        -4.193808
 H         2.875298         1.695278        -3.400602
 H         2.092904         0.955068        -4.997979
 H         0.274932        -0.058220        -3.167986
 H         2.901315         1.768977        -1.087993
 H         4.262357         0.137134        -1.893227
 H         3.287514        -1.320783        -1.350268
 H         1.068435         0.052538         0.364977
