19
Iteration:  4714
 C         2.385129        -1.730258        -3.770765
 C         2.465382        -0.440117        -3.135988
 C         2.254212         0.907535        -3.880560
 C         1.209800         0.424445        -2.991546
 O         1.074074         0.960592        -1.700683
 C         2.365520         0.746068        -1.008470
 C         3.195835        -0.274177        -1.779009
 C         2.073443         0.174077         0.322115
 O         2.684372         0.583946         1.275630
 H         3.345061        -2.194541        -4.004696
 H         1.863281        -2.485822        -3.260164
 H         1.920111        -1.645911        -4.779650
 H         2.830205         1.781667        -3.556507
 H         2.000631         0.991006        -4.892791
 H         0.208624         0.111586        -3.230072
 H         2.906377         1.663708        -0.870811
 H         4.109227         0.225224        -1.911278
 H         3.332595        -1.274080        -1.365259
 H         1.580180        -0.825294         0.264237
