19
Iteration:  4218charge 0 multiplicity 1
 C         2.420269        -1.733702        -3.980247
 C         2.416839        -0.484701        -3.159613
 C         2.297317         0.888021        -3.867610
 C         1.248165         0.372195        -2.944671
 O         1.058749         0.919490        -1.605536
 C         2.290259         0.769143        -0.962548
 C         3.123403        -0.316548        -1.898107
 C         2.153989         0.243004         0.402385
 O         2.694928         0.663863         1.370123
 H         3.417444        -2.014228        -4.415646
 H         1.869868        -2.575428        -3.603744
 H         1.940580        -1.480526        -4.895888
 H         3.029843         1.684505        -3.622428
 H         2.127846         0.914833        -5.008956
 H         0.199949         0.047910        -3.306176
 H         2.838805         1.726364        -0.711782
 H         4.120974         0.202551        -2.051178
 H         3.189055        -1.300612        -1.432316
 H         1.426673        -0.637884         0.411216
