19
Iteration:  4757
 C         2.467652        -1.808929        -3.884480
 C         2.381239        -0.406735        -3.191420
 C         2.198054         0.856586        -3.993862
 C         1.190988         0.465049        -2.978077
 O         1.142107         0.965334        -1.662153
 C         2.405791         0.801782        -1.017898
 C         3.189782        -0.271806        -1.827350
 C         2.135991         0.277246         0.332218
 O         2.625351         0.505257         1.507837
 H         3.510122        -2.168890        -4.141904
 H         2.112677        -2.522503        -3.146844
 H         1.923582        -2.017735        -4.869450
 H         2.827915         1.707212        -3.809493
 H         1.709811         0.920722        -4.939218
 H         0.206573         0.277213        -3.449729
 H         2.934221         1.720235        -1.058747
 H         4.193465         0.047099        -1.901171
 H         3.067230        -1.227948        -1.260611
 H         1.227245        -0.472641         0.445873
