19
Iteration:  1484charge 0 multiplicity 1
 C         2.457662        -1.746393        -3.876224
 C         2.578332        -0.399905        -3.215988
 C         1.950427         0.746421        -3.990585
 C         1.183592         0.286213        -2.865427
 O         1.215092         0.981434        -1.674279
 C         2.458921         0.902210        -1.022655
 C         3.365384        -0.013204        -1.915589
 C         2.074105         0.181890         0.341722
 O         2.509077         0.402332         1.515915
 H         3.296818        -2.005318        -4.567342
 H         2.259835        -2.568794        -3.173297
 H         1.616354        -1.571059        -4.470176
 H         2.404826         1.885165        -4.124733
 H         1.562482         0.655222        -5.005248
 H         0.123036        -0.114835        -2.989969
 H         2.933426         1.846725        -0.846986
 H         4.458154         0.358990        -2.081495
 H         3.465133        -0.963082        -1.280112
 H         1.101105        -0.406827         0.280189
