19
Iteration:  2917
 C         2.606566        -1.681665        -3.950195
 C         2.472857        -0.384121        -3.132562
 C         2.219098         1.142130        -3.810560
 C         1.150539         0.406106        -3.069627
 O         0.905517         0.647786        -1.724855
 C         2.176006         0.631016        -1.027516
 C         3.050357        -0.485151        -1.762775
 C         2.067069         0.506161         0.552519
 O         3.008185         0.589114         1.250412
 H         3.731986        -1.980152        -3.807667
 H         2.018172        -2.564191        -3.494530
 H         2.398396        -1.472422        -5.054447
 H         2.780496         1.993566        -3.377469
 H         2.193802         1.181303        -4.886978
 H         0.289346        -0.112370        -3.475444
 H         2.607188         1.696849        -1.045035
 H         4.069013        -0.023107        -1.646667
 H         2.926655        -1.574946        -1.326292
 H         1.081418         0.190880         0.773100
