19
Iteration:  1215
 C         2.528024        -1.659212        -3.960057
 C         2.434368        -0.359785        -3.166350
 C         2.340975         1.027362        -3.814718
 C         1.192969         0.367009        -3.033346
 O         0.908854         0.763320        -1.627898
 C         2.205457         0.698657        -1.029963
 C         2.992412        -0.451233        -1.691743
 C         2.183803         0.240441         0.369675
 O         2.896688         0.748878         1.273545
 H         3.562029        -1.749624        -4.374433
 H         2.222509        -2.387036        -3.239853
 H         1.921836        -1.664206        -4.894335
 H         2.857076         1.801965        -3.338443
 H         2.189976         1.002882        -4.956316
 H         0.331661         0.034919        -3.561605
 H         2.852815         1.575227        -1.094432
 H         4.114703        -0.462793        -1.710939
 H         2.724930        -1.471916        -1.184468
 H         1.420981        -0.481829         0.606050
