19
Iteration:  2763
 C         2.408698        -1.737056        -3.985571
 C         2.405359        -0.456727        -3.118713
 C         2.236996         0.940684        -3.809755
 C         1.153378         0.314303        -2.976683
 O         1.057295         0.855115        -1.555124
 C         2.385947         0.764187        -1.000623
 C         3.303660        -0.262026        -1.850875
 C         2.216447         0.182417         0.334727
 O         2.554146         0.715370         1.330397
 H         3.404155        -2.172467        -4.209355
 H         1.815388        -2.549982        -3.536263
 H         2.188878        -1.298643        -4.961865
 H         2.685830         1.839878        -3.538643
 H         1.865385         0.806306        -4.861882
 H         0.174271         0.051401        -3.437427
 H         2.796926         1.785072        -1.004893
 H         4.304152         0.254268        -2.124567
 H         3.579552        -1.272486        -1.426798
 H         1.694794        -0.771373         0.260414
