19
Iteration:  2289charge 0 multiplicity 1
 C         2.582806        -1.799084        -3.637453
 C         2.437767        -0.397857        -3.123664
 C         2.094203         0.853845        -3.963633
 C         1.127900         0.326520        -2.979973
 O         1.101953         1.023890        -1.767644
 C         2.278587         0.885488        -1.057637
 C         3.261304        -0.019056        -1.884422
 C         2.016693         0.286153         0.406022
 O         2.778577         0.211217         1.310301
 H         3.669473        -2.035510        -3.932815
 H         2.420156        -2.589768        -2.813567
 H         1.802773        -1.893885        -4.397590
 H         2.666855         1.614388        -3.477985
 H         2.022207         0.777936        -4.993576
 H         0.138796         0.075888        -3.329735
 H         2.606668         1.919006        -0.902273
 H         4.133424         0.532119        -2.250920
 H         3.515129        -1.040121        -1.330696
 H         0.971061        -0.014462         0.293459
