19
Iteration:  4860
 C         2.455164        -1.772707        -3.807981
 C         2.345166        -0.419630        -3.214157
 C         2.286025         0.860709        -3.950754
 C         1.141344         0.465684        -3.005015
 O         1.137953         0.956987        -1.643253
 C         2.369889         0.804558        -0.975067
 C         3.151862        -0.310232        -1.881216
 C         2.136591         0.238945         0.363834
 O         2.642917         0.538867         1.400187
 H         3.463672        -1.926623        -4.074648
 H         2.178975        -2.629537        -3.174582
 H         1.903514        -2.004677        -4.681096
 H         2.811119         1.793769        -3.523632
 H         2.052885         1.023699        -5.027823
 H         0.220876         0.151360        -3.420852
 H         2.933288         1.812539        -0.847130
 H         4.221467         0.046638        -2.039542
 H         3.252188        -1.261148        -1.304204
 H         1.456420        -0.597722         0.292413
