19
Iteration:  2502charge 0 multiplicity 1
 C         2.750489        -1.732068        -3.897200
 C         2.392334        -0.451248        -3.090766
 C         2.165863         0.889694        -3.877689
 C         1.061080         0.307549        -2.959420
 O         0.989016         0.929351        -1.724165
 C         2.300127         0.813895        -1.038642
 C         3.080084        -0.296014        -1.811087
 C         2.064272         0.695946         0.504172
 O         2.835101         0.205667         1.245777
 H         3.722035        -1.726197        -4.337576
 H         2.905245        -2.619107        -3.207812
 H         2.035802        -2.005155        -4.725903
 H         2.728856         1.801360        -3.404035
 H         2.067897         0.776465        -4.963353
 H         0.087332        -0.061999        -3.272982
 H         2.824789         1.721186        -1.317562
 H         4.147945        -0.015032        -1.922335
 H         2.958584        -1.229880        -1.336690
 H         1.184932         1.199463         0.850947
