19
Iteration:  1496charge 0 multiplicity 1
 C         2.454268        -1.762315        -3.839120
 C         2.517145        -0.363068        -3.159595
 C         1.983662         0.851405        -4.003316
 C         1.213523         0.229176        -2.835372
 O         1.186687         1.058438        -1.618665
 C         2.467543         0.862417        -1.028630
 C         3.313573        -0.068961        -1.907761
 C         2.148453         0.142547         0.292148
 O         2.471857         0.435365         1.391909
 H         3.420209        -2.048423        -4.386836
 H         2.266593        -2.538590        -3.127578
 H         1.674555        -1.843394        -4.523892
 H         2.443046         1.917567        -3.674083
 H         1.758313         0.481999        -4.983624
 H         0.257499        -0.406762        -2.956886
 H         2.870345         1.854309        -0.817221
 H         4.329575         0.460477        -2.086040
 H         3.503636        -1.041280        -1.398125
 H         1.384645        -0.679531         0.028820
