19
Iteration:  1006charge 0 multiplicity 1
 C         2.405501        -1.752662        -3.719471
 C         2.496930        -0.395453        -3.150326
 C         2.410575         0.916094        -3.898999
 C         1.238051         0.422009        -3.053018
 O         0.911308         0.771758        -1.710297
 C         2.173751         0.873597        -1.002339
 C         3.139944        -0.086907        -1.790788
 C         2.012467         0.395520         0.423237
 O         2.953980         0.250741         1.230528
 H         2.362913        -1.769755        -4.848873
 H         3.181331        -2.318374        -3.204815
 H         1.459133        -2.335115        -3.583135
 H         2.841446         1.922314        -3.722334
 H         2.169033         0.868158        -5.024747
 H         0.328628        -0.009662        -3.608951
 H         2.579069         1.940131        -0.941920
 H         4.110077         0.384802        -1.959822
 H         3.288560        -0.959260        -1.239488
 H         0.939348         0.182698         0.769806
