19
Iteration:  1683
 C         2.553139        -1.706804        -3.796426
 C         2.520283        -0.411166        -3.128532
 C         2.027688         0.892278        -3.990988
 C         1.170945         0.273251        -2.916116
 O         1.111019         1.022432        -1.699606
 C         2.369438         0.817162        -1.002507
 C         3.208559        -0.125628        -1.845943
 C         2.100232         0.120285         0.382453
 O         2.663640         0.487726         1.316191
 H         3.644900        -1.931704        -4.021316
 H         2.145976        -2.438232        -3.129416
 H         1.892291        -1.669647        -4.629102
 H         2.360439         1.878405        -3.851704
 H         1.711620         0.507010        -4.996269
 H         0.269258        -0.160966        -3.250769
 H         2.866210         1.707660        -0.721669
 H         4.231381         0.324942        -2.010507
 H         3.321272        -1.120942        -1.393808
 H         1.384139        -0.820563         0.378149
