19
Iteration:  3488
 C         2.568260        -1.760767        -3.805965
 C         2.560522        -0.281660        -3.065832
 C         1.995160         0.819102        -4.032009
 C         1.164456         0.233604        -2.894598
 O         1.100000         0.909961        -1.733054
 C         2.260439         0.998576        -0.969910
 C         3.301918        -0.037558        -1.753236
 C         1.962888         0.399568         0.419479
 O         2.796676         0.164194         1.210254
 H         3.638229        -1.984784        -4.242692
 H         1.964996        -2.581207        -3.237705
 H         2.047705        -1.589482        -4.724439
 H         2.231813         1.813466        -3.979285
 H         1.604843         0.473909        -5.029545
 H         0.455277        -0.547444        -3.100094
 H         2.926410         1.867332        -0.905671
 H         4.237468         0.554074        -1.762130
 H         3.619422        -1.007059        -1.274182
 H         0.792698         0.103070         0.506423
