19
Iteration:  4841charge 0 multiplicity 1
 C         2.481241        -1.736736        -3.848247
 C         2.413778        -0.424049        -3.095627
 C         2.207192         0.897836        -3.986529
 C         1.147758         0.471080        -2.942622
 O         1.094254         0.918378        -1.648670
 C         2.491337         0.842151        -1.159439
 C         3.151609        -0.285351        -1.795077
 C         2.151532         0.247054         0.369470
 O         2.592450         0.497756         1.461999
 H         3.424728        -1.963043        -4.427849
 H         2.287086        -2.612916        -3.191586
 H         1.668897        -1.860697        -4.609715
 H         2.986387         1.649238        -4.073149
 H         2.000632         0.523064        -4.946925
 H         0.181311         0.394774        -3.280303
 H         3.017465         1.853784        -1.117451
 H         4.279949        -0.284906        -1.963653
 H         3.001323        -1.274440        -1.377170
 H         1.253777        -0.474911         0.145123
