19
Iteration:  3188
 C         2.600757        -1.723141        -3.580662
 C         2.593687        -0.306540        -3.095639
 C         2.053157         0.715461        -4.080884
 C         1.133164         0.234124        -2.930112
 O         0.996690         0.937487        -1.655813
 C         2.284576         1.017801        -0.976514
 C         3.233050         0.165052        -1.837618
 C         2.041530         0.539815         0.479650
 O         2.799876        -0.157850         1.025668
 H         3.609485        -1.916763        -4.043470
 H         2.253049        -2.336540        -2.763449
 H         1.832260        -1.876524        -4.385578
 H         2.459860         1.792627        -4.116888
 H         1.781821         0.348427        -5.044989
 H         0.216686        -0.312495        -3.114634
 H         2.541044         2.135103        -1.006112
 H         4.240490         0.687783        -2.098978
 H         3.655727        -0.622074        -1.174960
 H         1.012812         0.639627         0.746906
