19
Iteration:  4107charge 0 multiplicity 1
 C         2.671887        -1.656971        -4.055590
 C         2.402012        -0.537805        -3.091887
 C         2.277114         0.865722        -3.741878
 C         1.077838         0.416874        -3.012991
 O         0.977116         1.003772        -1.718856
 C         2.239709         0.625889        -1.002268
 C         3.077334        -0.525763        -1.805104
 C         1.946702         0.544159         0.542713
 O         2.975834         0.518020         1.258473
 H         3.594558        -1.486818        -4.640579
 H         2.656010        -2.674592        -3.656951
 H         1.974602        -1.379532        -4.846923
 H         2.680665         1.840335        -3.336315
 H         2.159366         0.845781        -4.800224
 H         0.168773         0.055699        -3.330807
 H         2.710898         1.592199        -1.140108
 H         4.089851        -0.026643        -1.913239
 H         3.074343        -1.461761        -1.252984
 H         0.958954         0.303209         0.951807
