19
Iteration:  4599
 C         2.645470        -1.671795        -3.981742
 C         2.389797        -0.453831        -3.099421
 C         2.297592         0.820508        -3.876230
 C         1.128483         0.386765        -3.036802
 O         0.994318         0.982065        -1.766302
 C         2.163159         0.763393        -1.019462
 C         2.957160        -0.415452        -1.735649
 C         2.069481         0.506347         0.539148
 O         2.966985         0.414362         1.317549
 H         3.754041        -1.811258        -4.267254
 H         2.325140        -2.678669        -3.439562
 H         1.966201        -1.524262        -4.855471
 H         2.913972         1.750616        -3.533032
 H         2.527643         0.762678        -4.970825
 H         0.097229         0.163689        -3.453942
 H         2.902021         1.573934        -1.115516
 H         4.081401        -0.045218        -1.749596
 H         2.821064        -1.358437        -1.111293
 H         1.040692         0.335915         0.859757
