19
Iteration:  3352
 C         2.710170        -1.813873        -3.576370
 C         2.472097        -0.350548        -3.079214
 C         2.036676         0.740192        -4.012572
 C         1.093042         0.358715        -2.951918
 O         0.956651         0.966061        -1.669278
 C         2.314724         1.043804        -1.050866
 C         3.291501         0.158170        -1.866258
 C         2.033757         0.529725         0.400422
 O         2.782414        -0.197512         1.119809
 H         3.851988        -1.885101        -3.736553
 H         2.551677        -2.705365        -2.934233
 H         2.157795        -2.095757        -4.597639
 H         2.576777         1.654577        -4.073172
 H         1.685801         0.344781        -5.060730
 H         0.079307         0.067135        -3.213008
 H         2.579763         2.119940        -0.973244
 H         4.240492         0.638175        -2.076060
 H         3.520450        -0.548664        -1.084613
 H         1.128375         0.844071         0.836835
