19
Iteration:   550charge 0 multiplicity 1
 C         2.462293        -1.729755        -4.044138
 C         2.523568        -0.451772        -3.173941
 C         2.208886         1.023154        -3.917752
 C         1.301570         0.314671        -2.947394
 O         1.118330         0.758188        -1.659611
 C         2.323584         0.690800        -1.039990
 C         3.271478        -0.360161        -1.861036
 C         1.973760         0.757730         0.450370
 O         2.572487         0.328461         1.494853
 H         2.120276        -2.581008        -3.384631
 H         1.729823        -1.544585        -4.854091
 H         3.514014        -2.053063        -4.294315
 H         2.418360         1.964274        -3.522544
 H         1.932990         0.928468        -4.967859
 H         0.243827        -0.025285        -3.282708
 H         2.924398         1.592048        -1.348613
 H         4.333661         0.059357        -1.945671
 H         3.457478        -1.296834        -1.292562
 H         1.114865         1.363974         0.605852
