19
Iteration:  2090charge 0 multiplicity 1
 C         2.540438        -1.847863        -3.763517
 C         2.430225        -0.403838        -3.103608
 C         2.047815         0.824448        -3.889384
 C         1.113613         0.240771        -2.854847
 O         1.183896         1.097195        -1.649249
 C         2.417869         0.960128        -1.037348
 C         3.277151        -0.034690        -1.916832
 C         2.186414         0.135969         0.164454
 O         2.501799         0.398353         1.370473
 H         3.432946        -2.125020        -4.454911
 H         2.366865        -2.615962        -3.026283
 H         1.784778        -1.912275        -4.631596
 H         2.711756         1.725262        -3.704681
 H         1.840906         0.677482        -4.882893
 H         0.075452        -0.068527        -3.044935
 H         2.982992         1.877772        -0.636428
 H         4.197083         0.377334        -2.326864
 H         3.543121        -0.896358        -1.226314
 H         1.550143        -0.717101        -0.124839
