19
Iteration:  3154
 C         2.665945        -1.757511        -3.644059
 C         2.541294        -0.434964        -3.018462
 C         1.981751         0.780565        -3.856706
 C         1.123125         0.217225        -2.887365
 O         0.948569         1.093441        -1.731641
 C         2.260991         0.914768        -1.060016
 C         3.325031         0.131515        -1.814525
 C         2.018631         0.517023         0.333095
 O         2.841829        -0.106148         1.029132
 H         3.654276        -2.314452        -3.671184
 H         2.050704        -2.571900        -3.243935
 H         2.447548        -1.539547        -4.697490
 H         2.392698         1.749940        -3.631542
 H         1.724106         0.545144        -4.950451
 H         0.178324        -0.330180        -3.110868
 H         2.608894         1.998276        -0.830264
 H         4.172929         0.830773        -2.225646
 H         3.674357        -0.581285        -1.057327
 H         1.073151         0.720644         0.686497
