19
Iteration:  3516
 C         2.641583        -1.684881        -3.776061
 C         2.431072        -0.365832        -3.098302
 C         2.138594         0.782503        -3.903376
 C         1.068061         0.242537        -2.920489
 O         0.971860         0.968680        -1.729215
 C         2.272101         0.944471        -1.026435
 C         3.225664        -0.077965        -1.865530
 C         1.993515         0.341022         0.383976
 O         2.882752         0.236025         1.257008
 H         3.708538        -1.741277        -4.012097
 H         2.553019        -2.635459        -3.263060
 H         2.097541        -1.767223        -4.773245
 H         2.704665         1.691627        -3.433846
 H         2.024620         0.730244        -4.955341
 H         0.223873        -0.324233        -3.353584
 H         2.859940         1.868298        -0.885934
 H         4.269510         0.270269        -1.959838
 H         3.331398        -1.032990        -1.355657
 H         0.926505         0.222610         0.681225
