19
Iteration:   342
 C         2.510462        -1.707776        -3.941834
 C         2.388348        -0.397953        -3.217434
 C         2.198982         0.918844        -4.006499
 C         1.165891         0.355751        -2.982860
 O         1.243142         1.035670        -1.606681
 C         2.426904         0.601716        -0.972720
 C         3.118889        -0.396737        -1.935396
 C         2.122519         0.127062         0.452170
 O         2.489762         0.777791         1.487763
 H         2.470980        -2.640964        -3.253225
 H         1.925015        -1.664673        -4.837060
 H         3.470950        -1.809244        -4.262191
 H         2.694350         1.752681        -3.544568
 H         2.026057         0.977511        -5.107882
 H         0.326897        -0.089118        -3.396346
 H         3.063322         1.529490        -0.872304
 H         4.224114        -0.066925        -1.994780
 H         3.108511        -1.426962        -1.398212
 H         1.397997        -0.828726         0.494175
