19
Iteration:   683
 C         2.511555        -1.726189        -3.868590
 C         2.455113        -0.403244        -3.157194
 C         2.471780         0.949325        -3.792378
 C         1.214175         0.373359        -3.050053
 O         0.922687         0.818794        -1.703141
 C         2.165297         0.832778        -1.034188
 C         3.030632        -0.273733        -1.668617
 C         1.990401         0.435357         0.367292
 O         2.928584         0.380643         1.204599
 H         1.556497        -2.188275        -3.377202
 H         2.224414        -1.960667        -4.992510
 H         3.487698        -2.223331        -3.747706
 H         3.265289         1.603375        -3.281303
 H         2.499820         1.069777        -4.868669
 H         0.287207         0.163445        -3.481356
 H         2.648211         1.859333        -1.179146
 H         4.119482        -0.091981        -1.679286
 H         2.816423        -1.111270        -1.055034
 H         1.032988         0.176004         0.739197
