19
Iteration:  1288
 C         2.551908        -1.559042        -4.171651
 C         2.499709        -0.447893        -3.111026
 C         2.192746         0.911995        -3.808613
 C         1.095727         0.255775        -2.946779
 O         1.088322         0.826296        -1.679420
 C         2.331441         0.649691        -1.018857
 C         3.087785        -0.510839        -1.693020
 C         2.021984         0.580228         0.449829
 O         2.841761         0.574172         1.331623
 H         3.567417        -1.553135        -4.816855
 H         2.370358        -2.474792        -3.567662
 H         1.708581        -1.480328        -4.800184
 H         2.567623         1.858468        -3.468673
 H         2.137438         0.903019        -4.981340
 H         0.197822        -0.117710        -3.295701
 H         3.001299         1.625958        -1.046562
 H         4.161217        -0.268829        -1.533978
 H         2.674513        -1.467988        -1.211412
 H         0.987715         0.747722         0.555117
