19
Iteration:  4123
 C         2.599780        -1.592888        -4.055119
 C         2.370626        -0.446140        -3.105204
 C         2.278791         0.865857        -3.803909
 C         1.088841         0.319004        -2.970980
 O         0.985639         0.953719        -1.696443
 C         2.228793         0.689747        -0.983832
 C         3.083740        -0.473842        -1.724132
 C         2.060649         0.416266         0.452225
 O         2.921485         0.561582         1.254569
 H         3.711089        -1.573204        -4.353378
 H         2.405298        -2.496933        -3.420481
 H         2.042142        -1.676068        -5.010586
 H         2.912497         1.705131        -3.442303
 H         2.421287         0.945949        -4.939180
 H         0.130183         0.147518        -3.585738
 H         2.976481         1.528445        -0.963301
 H         4.165824        -0.324020        -1.716359
 H         2.831718        -1.480746        -1.292880
 H         0.976991         0.387906         0.749446
