19
Iteration:  4353
 C         2.383356        -1.722043        -3.694571
 C         2.480461        -0.361053        -3.209337
 C         2.195548         0.949864        -3.919134
 C         1.174026         0.478873        -2.982198
 O         1.113639         0.828692        -1.643127
 C         2.435287         0.724859        -1.110842
 C         3.234310        -0.285296        -1.886931
 C         2.128852         0.176042         0.320946
 O         2.619687         0.592932         1.362796
 H         3.362341        -2.211679        -3.992305
 H         1.706119        -2.281407        -3.039047
 H         1.771765        -1.699379        -4.627698
 H         2.878723         1.790369        -3.577100
 H         2.036480         1.042844        -4.975904
 H         0.193614         0.113955        -3.262393
 H         2.873013         1.702749        -0.910260
 H         4.302390        -0.147581        -1.810366
 H         3.069981        -1.273611        -1.313227
 H         1.317322        -0.568823         0.438271
