19
Iteration:   709charge 0 multiplicity 1
 C         2.491306        -1.679700        -3.953517
 C         2.469172        -0.459765        -3.113268
 C         2.318491         0.999354        -3.850487
 C         1.270131         0.422885        -3.035744
 O         0.983958         0.802908        -1.730465
 C         2.303057         0.631798        -0.981136
 C         3.146258        -0.419154        -1.766299
 C         1.952835         0.542720         0.480992
 O         2.802131         0.502922         1.334310
 H         1.600424        -2.311721        -3.732329
 H         2.084086        -1.419297        -4.995606
 H         3.434186        -2.202406        -4.077522
 H         2.922247         1.829197        -3.597767
 H         2.211919         0.800503        -4.939886
 H         0.271127         0.119693        -3.558911
 H         2.863872         1.556623        -1.107373
 H         4.172437        -0.112057        -1.977675
 H         3.256317        -1.450488        -1.155066
 H         0.817922         0.579191         0.781354
