19
Iteration:  1083charge 0 multiplicity 1
 C         2.641533        -1.625195        -3.972074
 C         2.391715        -0.497472        -3.120535
 C         2.153506         0.738278        -3.920224
 C         1.137052         0.355864        -2.943750
 O         1.051192         1.017810        -1.717094
 C         2.264721         0.903779        -1.007416
 C         3.039895        -0.322578        -1.714422
 C         2.021404         0.462262         0.436399
 O         2.904599         0.300650         1.324695
 H         3.649653        -1.330041        -4.549601
 H         2.829979        -2.609984        -3.541953
 H         1.837872        -1.833346        -4.685798
 H         2.745959         1.749941        -3.879113
 H         2.185415         0.575676        -4.987827
 H         0.251688        -0.098552        -3.253198
 H         3.018085         1.775084        -1.014961
 H         4.034100         0.120851        -1.865120
 H         3.038554        -1.206685        -1.135114
 H         0.941293         0.322253         0.761141
