19
Iteration:  3273
 C         2.657807        -1.652282        -3.646137
 C         2.570944        -0.284818        -2.985176
 C         2.015060         0.615453        -4.028888
 C         1.066306         0.207246        -2.841390
 O         1.062895         1.039385        -1.736914
 C         2.273106         1.059672        -0.986170
 C         3.328885         0.085774        -1.785848
 C         1.947969         0.577067         0.386505
 O         2.772266        -0.188277         0.976199
 H         3.388313        -1.756674        -4.449793
 H         2.745022        -2.555782        -2.975399
 H         1.831161        -1.869816        -4.399493
 H         2.369077         1.741014        -4.070647
 H         1.811759         0.078366        -4.900100
 H         0.294926        -0.566670        -2.843393
 H         2.607094         2.088479        -0.779868
 H         4.292894         0.455785        -2.037795
 H         3.520263        -0.694031        -1.065189
 H         1.081502         0.894641         0.987314
