19
Iteration:  4426charge 0 multiplicity 1
 C         2.489492        -1.651059        -3.899380
 C         2.443134        -0.442083        -3.055638
 C         2.194426         0.839957        -3.902816
 C         1.131010         0.336046        -3.011396
 O         1.087197         0.982503        -1.714398
 C         2.359788         0.831299        -1.063175
 C         3.111687        -0.343432        -1.738353
 C         2.117646         0.302462         0.412454
 O         2.756820         0.501984         1.350869
 H         3.443593        -1.673644        -4.468846
 H         2.237943        -2.570525        -3.412455
 H         1.803971        -1.560884        -4.694892
 H         2.975835         1.685357        -3.682726
 H         2.115230         0.820935        -5.005130
 H         0.208819         0.058120        -3.474405
 H         2.855500         1.860691        -1.043283
 H         4.246909        -0.455223        -1.756198
 H         2.832835        -1.285270        -1.309875
 H         1.234457        -0.360705         0.432028
