19
Iteration:  2012
 C         2.468745        -1.775380        -3.855311
 C         2.481214        -0.401102        -3.114666
 C         2.078302         0.797336        -3.888839
 C         1.127057         0.292163        -2.908533
 O         1.144556         1.018560        -1.757493
 C         2.360470         0.785730        -1.028938
 C         3.373028        -0.026061        -1.956295
 C         2.087728         0.123615         0.367040
 O         2.613696         0.513976         1.462359
 H         3.429590        -2.299909        -4.226879
 H         2.060929        -2.630773        -3.346910
 H         1.661244        -1.547808        -4.659459
 H         2.370407         1.689284        -3.374994
 H         2.077433         0.768157        -5.018358
 H         0.203434        -0.141404        -3.187860
 H         2.735910         1.779707        -0.538624
 H         4.127065         0.672976        -2.410262
 H         3.827476        -0.924222        -1.484522
 H         1.281493        -0.693645         0.262588
