19
Iteration:  3762
 C         2.426494        -1.637706        -3.910069
 C         2.520742        -0.312524        -3.266664
 C         2.177870         1.042868        -3.861984
 C         1.180264         0.357666        -2.980196
 O         1.143471         0.710710        -1.621902
 C         2.373118         0.613350        -1.048142
 C         3.163611        -0.405486        -1.875154
 C         2.059342         0.287287         0.454305
 O         2.677203         0.744704         1.402610
 H         3.528256        -1.814734        -4.153486
 H         2.010607        -2.373917        -3.151352
 H         1.949779        -1.830591        -4.848856
 H         2.660261         1.985791        -3.674169
 H         2.009107         0.760467        -4.919215
 H         0.193267        -0.061681        -3.260586
 H         2.894472         1.614554        -1.058785
 H         4.243044        -0.156203        -1.726054
 H         2.935748        -1.462247        -1.592261
 H         1.254542        -0.542218         0.415390
