19
Iteration:  2467charge 0 multiplicity 1
 C         2.815029        -1.687633        -3.900461
 C         2.448155        -0.408104        -3.177503
 C         2.199829         0.899156        -3.926659
 C         1.063769         0.357175        -2.950484
 O         0.869520         0.791107        -1.576009
 C         2.340118         0.767919        -1.122326
 C         3.031961        -0.360566        -1.801275
 C         2.165126         0.881850         0.482053
 O         2.781769         0.157770         1.273645
 H         3.790653        -1.591575        -4.250982
 H         2.524750        -2.592939        -3.233802
 H         2.078961        -1.878584        -4.760531
 H         2.784196         1.826792        -3.827681
 H         2.044220         0.652157        -5.038059
 H         0.040420        -0.024278        -3.135310
 H         2.780441         1.759570        -1.367605
 H         4.158158        -0.311209        -1.599024
 H         2.829508        -1.290556        -1.270505
 H         1.399567         1.600513         0.745412
