19
Iteration:  3324charge 0 multiplicity 1
 C         2.746424        -1.725302        -3.484160
 C         2.394893        -0.360522        -3.136284
 C         2.036083         0.797792        -4.065607
 C         1.058229         0.259979        -2.829138
 O         1.043126         0.979763        -1.622724
 C         2.418315         0.928977        -1.044948
 C         3.262690         0.100771        -2.007301
 C         2.017683         0.527883         0.388414
 O         2.673677        -0.145994         1.094278
 H         3.815351        -1.696797        -3.663440
 H         2.481403        -2.543559        -2.785740
 H         2.643936        -2.105336        -4.453096
 H         2.637942         1.706584        -3.863686
 H         1.593401         0.608949        -4.997792
 H         0.018477        -0.079040        -3.035759
 H         2.764365         1.999173        -1.023263
 H         4.148170         0.780906        -2.287832
 H         3.831097        -0.672059        -1.407601
 H         1.001974         1.027549         0.775497
