19
Iteration:   738
 C         2.547445        -1.661742        -4.125260
 C         2.489924        -0.472941        -3.241660
 C         2.263252         0.932106        -3.885460
 C         1.201291         0.343788        -2.965843
 O         1.116714         0.824375        -1.653511
 C         2.429882         0.694365        -0.994554
 C         3.029528        -0.478263        -1.861279
 C         1.978403         0.612022         0.519073
 O         2.688349         0.571838         1.523879
 H         2.184279        -2.664586        -3.646706
 H         1.785905        -1.408371        -4.956922
 H         3.555749        -1.934707        -4.435034
 H         2.699167         1.821313        -3.364796
 H         2.161816         0.930170        -5.008126
 H         0.275610        -0.061493        -3.391478
 H         3.190555         1.549652        -1.034533
 H         4.104738        -0.648332        -1.878770
 H         2.686321        -1.380486        -1.458824
 H         0.826547         0.571228         0.581928
