19
Iteration:  1533
 C         2.612260        -1.839483        -3.707128
 C         2.305964        -0.411315        -3.112402
 C         2.070728         0.901104        -3.945675
 C         1.084088         0.440596        -2.857254
 O         1.178204         1.063615        -1.578344
 C         2.451007         0.742353        -1.014207
 C         3.228630        -0.060558        -2.022522
 C         2.308177        -0.001916         0.269290
 O         2.398486         0.521395         1.310025
 H         3.682419        -1.901728        -3.960828
 H         2.412247        -2.525970        -2.879011
 H         2.089105        -2.107530        -4.717481
 H         2.629319         1.737730        -3.910587
 H         1.795120         0.747005        -5.041655
 H         0.156879         0.106095        -3.210477
 H         3.116654         1.655435        -0.789268
 H         4.111491         0.431365        -2.356045
 H         3.725076        -0.939784        -1.647693
 H         1.934027        -1.059095         0.154045
