19
Iteration:  4369charge 0 multiplicity 1
 C         2.346206        -1.765580        -3.755199
 C         2.398185        -0.342495        -3.188724
 C         2.335661         1.039614        -3.938581
 C         1.163705         0.367273        -3.016178
 O         1.119430         0.862631        -1.626677
 C         2.385788         0.674291        -0.964119
 C         3.183089        -0.270585        -1.897339
 C         2.085338         0.192624         0.389833
 O         2.675574         0.611609         1.317390
 H         3.321920        -2.189721        -3.721822
 H         1.922646        -2.404761        -2.958219
 H         1.867040        -1.929032        -4.730859
 H         2.787676         1.888543        -3.510361
 H         2.195521         0.944325        -5.032897
 H         0.203358         0.120729        -3.528536
 H         2.906567         1.656416        -0.924864
 H         4.117359         0.253191        -2.245802
 H         3.518630        -1.290824        -1.634600
 H         1.287159        -0.628946         0.345803
