19
Iteration:  2943charge 0 multiplicity 1
 C         2.655312        -1.640477        -4.056667
 C         2.480157        -0.467770        -3.089120
 C         2.324449         0.918628        -3.715307
 C         1.079389         0.254472        -2.966522
 O         0.924276         0.768829        -1.597671
 C         2.221801         0.797246        -1.130738
 C         3.037647        -0.251017        -1.745587
 C         2.022960         0.455181         0.415472
 O         2.982845         0.481117         1.214882
 H         3.540982        -2.170619        -3.981769
 H         1.873015        -2.403423        -3.838915
 H         2.565679        -1.118811        -5.001197
 H         2.850965         1.805304        -3.346380
 H         1.926449         0.990073        -4.795168
 H         0.166078        -0.192483        -3.431067
 H         2.620487         1.810812        -1.075727
 H         4.041520         0.074051        -1.656622
 H         2.797572        -1.202135        -1.230103
 H         0.874147         0.348363         0.606318
