19
Iteration:  2347charge 0 multiplicity 1
 C         2.649406        -1.789210        -3.728487
 C         2.457257        -0.347315        -3.090730
 C         2.162159         0.843871        -3.993187
 C         1.167597         0.341248        -3.004026
 O         0.983818         1.019519        -1.744532
 C         2.234435         0.847455        -0.968910
 C         3.161744        -0.178316        -1.756935
 C         1.996088         0.412616         0.442384
 O         2.887496         0.218708         1.180360
 H         3.595420        -1.866774        -4.193417
 H         2.464854        -2.511821        -2.838676
 H         1.951184        -2.005922        -4.580408
 H         2.469466         1.904430        -3.883781
 H         2.062745         0.632916        -5.106075
 H         0.194229        -0.067949        -3.313794
 H         2.643555         1.874116        -0.928545
 H         4.246555         0.164681        -1.799722
 H         3.207537        -1.090317        -1.129323
 H         0.906693         0.330141         0.655162
