19
Iteration:  2786charge 0 multiplicity 1
 C         2.491600        -1.747313        -3.972625
 C         2.398706        -0.358602        -3.308013
 C         2.171457         1.009849        -3.896608
 C         1.139338         0.348600        -2.972608
 O         1.144539         0.763329        -1.569175
 C         2.427030         0.691132        -1.077060
 C         3.181669        -0.317797        -1.905544
 C         2.150035         0.233482         0.515121
 O         2.592195         0.754747         1.479215
 H         3.494476        -2.159471        -4.034369
 H         2.051161        -2.430565        -3.205535
 H         2.206775        -1.761202        -5.041141
 H         2.937828         1.666085        -3.502513
 H         1.877434         1.168301        -4.940867
 H         0.211301        -0.081918        -3.316486
 H         2.808145         1.711711        -1.096570
 H         4.198407        -0.127772        -2.278385
 H         3.197925        -1.394255        -1.630371
 H         1.332198        -0.440316         0.566246
