19
Iteration:  2356charge 0 multiplicity 1
 C         2.656422        -1.736470        -3.661396
 C         2.479429        -0.422809        -3.146523
 C         2.172067         0.935635        -4.043560
 C         1.105083         0.321733        -2.990365
 O         0.982581         1.007854        -1.737346
 C         2.189601         0.812735        -1.054321
 C         3.140154        -0.196044        -1.809033
 C         2.026048         0.452912         0.394263
 O         2.902471         0.199429         1.286874
 H         3.728191        -1.823483        -4.021696
 H         2.560498        -2.657055        -2.916499
 H         1.917524        -2.015530        -4.432869
 H         2.633745         1.874695        -3.650133
 H         2.124756         0.715618        -5.079545
 H         0.171897        -0.075489        -3.345719
 H         2.752747         1.754325        -0.925712
 H         4.187489         0.225808        -1.772430
 H         3.169416        -1.195169        -1.145506
 H         0.991445         0.606010         0.881552
