19
Iteration:   645
 C         2.647604        -1.707193        -3.675436
 C         2.404046        -0.394612        -3.082460
 C         2.423012         0.942348        -3.871335
 C         1.174550         0.481031        -3.089412
 O         0.906910         1.020792        -1.812704
 C         2.141475         0.795352        -1.005407
 C         2.890650        -0.342563        -1.627384
 C         1.969457         0.277552         0.415434
 O         3.047293         0.326056         1.062443
 H         2.332648        -2.380979        -2.931903
 H         2.176530        -1.895070        -4.574450
 H         3.735502        -1.983359        -3.612334
 H         3.041902         1.678081        -3.429883
 H         2.568081         0.765367        -4.947878
 H         0.234775         0.236788        -3.727179
 H         2.650546         1.750908        -0.902229
 H         3.952223        -0.150268        -1.535548
 H         2.815373        -1.347776        -1.165721
 H         1.038666        -0.099753         0.709466
