19
Iteration:  2147charge 0 multiplicity 1
 C         2.531554        -1.927036        -3.685504
 C         2.485899        -0.347994        -3.249805
 C         1.965092         0.877514        -4.112008
 C         1.163793         0.340587        -2.986493
 O         1.203899         1.125100        -1.720574
 C         2.364511         0.842990        -0.967435
 C         3.347982        -0.016957        -1.983251
 C         2.084731         0.133367         0.370687
 O         2.568612         0.363427         1.550924
 H         3.533285        -2.001830        -4.099275
 H         2.402126        -2.629836        -2.813974
 H         1.722535        -2.170447        -4.329106
 H         2.446636         1.700213        -3.812197
 H         1.490545         0.847860        -5.111838
 H         0.218831        -0.248575        -3.067052
 H         2.806240         1.794337        -0.654250
 H         4.215971         0.514069        -2.240611
 H         3.713205        -0.991266        -1.528731
 H         1.392310        -0.708709         0.399964
