19
Iteration:  4622
 C         2.525745        -1.657403        -3.961768
 C         2.414665        -0.413193        -3.068043
 C         2.229886         0.914325        -3.794542
 C         1.165087         0.313282        -2.942246
 O         1.087245         0.987994        -1.754894
 C         2.353159         0.752598        -1.043834
 C         3.090738        -0.473682        -1.685410
 C         1.924342         0.448102         0.375457
 O         2.875380         0.461942         1.237419
 H         3.648324        -1.603212        -4.254853
 H         2.543409        -2.631578        -3.329417
 H         1.867509        -1.761247        -4.844938
 H         2.553339         1.957611        -3.609671
 H         2.112908         0.780924        -4.925001
 H         0.214666        -0.058993        -3.442108
 H         2.993045         1.637827        -1.019558
 H         4.256834        -0.355915        -1.707742
 H         2.737346        -1.367969        -1.091938
 H         0.855691         0.340700         0.609633
