19
Iteration:  4222
 C         2.426477        -1.706045        -3.977938
 C         2.404455        -0.492538        -3.166483
 C         2.282839         0.891313        -3.877073
 C         1.220159         0.364321        -2.945981
 O         1.067863         0.894665        -1.631648
 C         2.321420         0.831206        -0.993362
 C         3.149753        -0.312779        -1.873846
 C         2.143962         0.229039         0.387112
 O         2.688601         0.656017         1.421559
 H         3.395440        -2.009375        -4.427346
 H         1.920819        -2.545205        -3.436544
 H         1.904453        -1.461493        -4.935307
 H         2.929681         1.705677        -3.649725
 H         2.146016         0.831901        -4.996020
 H         0.270766         0.112952        -3.285097
 H         2.952382         1.693052        -0.766921
 H         4.142772         0.011170        -2.140140
 H         3.030090        -1.367824        -1.455190
 H         1.438397        -0.684423         0.496216
