19
Iteration:  3011charge 0 multiplicity 1
 C         2.724785        -1.764550        -3.764947
 C         2.472826        -0.317656        -3.219443
 C         2.058730         0.939742        -3.991148
 C         1.067258         0.388110        -2.999093
 O         0.976917         0.845407        -1.707143
 C         2.317691         0.772251        -0.972666
 C         3.209796        -0.209903        -1.818372
 C         1.998449         0.467613         0.491092
 O         2.878446         0.249215         1.263038
 H         3.709082        -1.951712        -4.172910
 H         2.660246        -2.504977        -2.966455
 H         1.974383        -1.892585        -4.527143
 H         2.360546         1.971284        -3.606814
 H         1.861840         0.849594        -5.021992
 H         0.118549        -0.008645        -3.308393
 H         2.697686         1.806986        -1.003786
 H         4.246130         0.255331        -1.863913
 H         3.109412        -1.110430        -1.244415
 H         1.009109         0.497272         0.772977
