19
Iteration:  2236
 C         2.499854        -1.755806        -3.662989
 C         2.435526        -0.369667        -3.130225
 C         2.110635         0.802329        -4.073548
 C         1.142061         0.296532        -2.944565
 O         1.141259         1.075883        -1.760257
 C         2.379812         0.862800        -0.994858
 C         3.241586         0.039702        -1.852881
 C         2.042295         0.155260         0.399755
 O         2.701124         0.288376         1.375531
 H         3.509349        -1.923328        -4.033612
 H         2.120659        -2.587634        -2.969316
 H         1.890354        -1.949342        -4.529038
 H         2.537125         1.829107        -3.926887
 H         1.897289         0.470419        -5.078313
 H         0.304308        -0.274001        -3.273747
 H         2.682034         1.872125        -0.700390
 H         4.169477         0.468349        -2.268434
 H         3.717818        -0.839613        -1.388030
 H         1.097991        -0.521064         0.100466
