19
Iteration:  3767
 C         2.428893        -1.645112        -3.873369
 C         2.518227        -0.308853        -3.257603
 C         2.150822         1.029977        -3.865562
 C         1.177600         0.326681        -2.959318
 O         1.120323         0.758936        -1.626445
 C         2.355521         0.629509        -1.018549
 C         3.235086        -0.404725        -1.838046
 C         2.061590         0.236084         0.367399
 O         2.677320         0.743733         1.391331
 H         3.432174        -1.876308        -4.138106
 H         1.901017        -2.514496        -3.415063
 H         1.977365        -1.658694        -4.951343
 H         2.813166         1.935315        -3.816438
 H         1.908676         0.922404        -5.009679
 H         0.197916        -0.046256        -3.192224
 H         2.995391         1.545239        -1.012948
 H         4.232129        -0.093450        -1.572007
 H         3.068921        -1.450765        -1.571825
 H         1.204547        -0.417996         0.450723
