19
Iteration:  4008charge 0 multiplicity 1
 C         2.565244        -1.777699        -3.939827
 C         2.362979        -0.480037        -3.047855
 C         2.309259         0.878605        -3.867109
 C         1.179089         0.403847        -3.038986
 O         0.887861         0.885331        -1.662189
 C         2.198632         0.847312        -1.067546
 C         3.131653        -0.159060        -1.772228
 C         2.092299         0.421150         0.459425
 O         2.949346         0.315148         1.289106
 H         3.608603        -2.127916        -3.938157
 H         1.873623        -2.623714        -3.681304
 H         2.388825        -1.412263        -4.997673
 H         2.999442         1.629386        -3.654971
 H         2.221538         0.748852        -5.000700
 H         0.188288         0.125458        -3.475802
 H         2.643246         1.897680        -1.012193
 H         4.179169         0.148273        -2.034295
 H         3.062920        -1.041041        -1.081861
 H         0.993190         0.573058         0.801366
