19
Iteration:   151charge 0 multiplicity 1
 C         2.553619        -1.637328        -4.188414
 C         2.469289        -0.420354        -3.212072
 C         2.264775         0.986397        -3.922671
 C         1.176527         0.369210        -2.973328
 O         1.120199         0.809238        -1.608612
 C         2.360957         0.557483        -0.966119
 C         3.091134        -0.502530        -1.826721
 C         2.039897         0.286946         0.550063
 O         2.637300         0.910868         1.463487
 H         2.323735        -2.626143        -3.523654
 H         1.769448        -1.652599        -4.924500
 H         3.576251        -1.770396        -4.629277
 H         2.710663         1.928828        -3.712756
 H         2.129533         0.713775        -4.973731
 H         0.179673         0.067338        -3.263271
 H         2.911544         1.482020        -1.012717
 H         4.176992        -0.391790        -1.779885
 H         2.936729        -1.573770        -1.479626
 H         1.314831        -0.617648         0.764748
