19
Iteration:  1196
 C         2.483221        -1.691490        -3.913417
 C         2.438245        -0.374816        -3.109264
 C         2.320969         0.993205        -3.706244
 C         1.192413         0.397971        -3.049384
 O         0.982724         0.773679        -1.739510
 C         2.155495         0.640687        -0.995619
 C         3.102323        -0.358172        -1.771291
 C         2.079800         0.176827         0.452955
 O         2.927689         0.767543         1.179070
 H         3.423294        -2.100928        -4.143287
 H         1.732522        -2.440021        -3.500881
 H         1.998208        -1.405323        -4.964680
 H         2.789762         1.792321        -3.212420
 H         2.367443         1.047203        -4.835835
 H         0.121903         0.075485        -3.448365
 H         2.607958         1.714146        -0.939625
 H         4.096071         0.048736        -1.685727
 H         3.046193        -1.249652        -1.321159
 H         1.608156        -0.803431         0.783312
