19
Iteration:  2872
 C         2.614456        -1.623404        -4.114833
 C         2.380199        -0.444488        -3.133502
 C         2.317004         0.976557        -3.735549
 C         1.172335         0.366913        -3.006059
 O         0.915884         0.699784        -1.658784
 C         2.210389         0.691819        -1.022689
 C         3.005100        -0.445825        -1.672927
 C         2.086704         0.379456         0.441908
 O         2.951636         0.723950         1.296225
 H         3.670017        -1.527060        -4.601716
 H         2.593802        -2.621598        -3.649162
 H         1.870108        -1.512686        -4.952671
 H         2.823747         1.834543        -3.258386
 H         2.246832         1.080647        -4.772949
 H         0.315377         0.222077        -3.660834
 H         2.757119         1.631836        -1.323953
 H         4.130757        -0.279570        -1.819009
 H         2.739867        -1.416887        -1.136754
 H         1.161233        -0.259800         0.569651
