19
Iteration:  4761
 C         2.469782        -1.793498        -3.908469
 C         2.383760        -0.421123        -3.196078
 C         2.211574         0.856414        -3.982038
 C         1.159495         0.456292        -2.983138
 O         1.151558         0.982980        -1.651024
 C         2.390786         0.787190        -1.019019
 C         3.221025        -0.262107        -1.817471
 C         2.113033         0.223574         0.366158
 O         2.632443         0.531324         1.484558
 H         3.448503        -2.108321        -4.101249
 H         2.181530        -2.619655        -3.220400
 H         1.919453        -2.050549        -4.769169
 H         2.905902         1.734426        -3.944760
 H         1.738202         0.801080        -5.061422
 H         0.051146         0.338052        -3.323928
 H         2.950994         1.801171        -0.898700
 H         4.300516        -0.006722        -1.929207
 H         3.094189        -1.236667        -1.366690
 H         1.098615        -0.292104         0.429068
