19
Iteration:  4269charge 0 multiplicity 1
 C         2.499639        -1.716051        -3.947296
 C         2.446137        -0.395357        -3.247257
 C         2.112936         0.906190        -3.891979
 C         1.137052         0.356936        -2.878384
 O         1.226583         1.006477        -1.642203
 C         2.508919         0.714655        -1.013640
 C         3.189651        -0.407695        -1.886168
 C         2.007333         0.255764         0.418253
 O         2.629169         0.633957         1.384440
 H         3.384343        -1.788856        -4.537530
 H         2.582640        -2.515518        -3.135194
 H         1.714812        -1.994866        -4.743160
 H         2.621301         1.869636        -3.777391
 H         1.723885         0.803268        -4.849615
 H         0.105609         0.010468        -3.196348
 H         2.915149         1.713802        -0.729727
 H         4.281159        -0.338215        -1.839952
 H         2.700970        -1.299111        -1.416136
 H         1.089721        -0.525485         0.372609
