19
Iteration:  3457charge 0 multiplicity 1
 C         2.700905        -1.783256        -3.650086
 C         2.446136        -0.279894        -3.126005
 C         2.039262         0.852276        -3.993449
 C         1.067895         0.258083        -2.949090
 O         1.043686         0.989113        -1.732770
 C         2.313723         0.837772        -1.057997
 C         3.278295         0.005141        -1.937801
 C         2.048524         0.396728         0.411499
 O         2.760759         0.083495         1.331470
 H         3.767834        -1.859355        -3.919896
 H         2.409943        -2.522183        -2.789084
 H         2.052176        -1.906984        -4.469221
 H         2.372761         1.834676        -3.836177
 H         1.731042         0.607863        -5.075694
 H         0.175174        -0.303621        -3.189162
 H         2.797283         1.821386        -0.995316
 H         4.060151         0.763106        -2.114524
 H         3.667936        -0.943892        -1.470925
 H         0.982242         0.636551         0.575534
