19
Iteration:  3629
 C         2.655320        -1.612551        -4.102505
 C         2.396819        -0.466695        -3.152103
 C         2.260242         0.951065        -3.793108
 C         1.133181         0.423037        -3.005985
 O         0.904788         0.656223        -1.586889
 C         2.274250         0.573731        -1.043924
 C         3.103702        -0.391355        -1.801826
 C         2.034103         0.500091         0.498394
 O         2.918119         0.693057         1.324277
 H         3.761978        -1.868182        -4.039225
 H         2.120981        -2.501581        -3.731663
 H         2.318629        -1.417667        -5.114321
 H         2.869229         1.697857        -3.410694
 H         2.193739         1.050698        -4.868947
 H         0.153269         0.256703        -3.423859
 H         2.700220         1.583265        -1.309875
 H         4.199740        -0.280155        -1.767131
 H         2.918325        -1.437938        -1.442436
 H         0.929731         0.341202         0.791520
