19
Iteration:  4142
 C         2.556143        -1.715462        -3.962369
 C         2.472694        -0.402566        -3.144448
 C         2.264535         0.961731        -3.834598
 C         1.196223         0.426038        -3.007312
 O         1.029214         0.761797        -1.668982
 C         2.297274         0.840244        -1.059849
 C         2.919005        -0.438970        -1.729779
 C         2.064783         0.424456         0.461539
 O         2.895071         0.552343         1.305027
 H         3.646325        -1.857289        -4.325243
 H         2.156779        -2.672753        -3.692531
 H         1.949430        -1.516427        -4.813133
 H         2.728500         1.988513        -3.484633
 H         2.050751         0.937070        -4.916062
 H         0.180522         0.063908        -3.351097
 H         2.980556         1.724833        -1.179143
 H         4.061152        -0.443276        -1.699649
 H         2.641176        -1.410127        -1.288009
 H         1.197670        -0.240333         0.561069
