19
Iteration:  2510charge 0 multiplicity 1
 C         2.725405        -1.760115        -3.908996
 C         2.430304        -0.392883        -3.124321
 C         2.144953         0.831138        -3.840139
 C         1.086569         0.278333        -2.963038
 O         0.962040         0.979769        -1.704186
 C         2.291319         0.821015        -1.029157
 C         3.102452        -0.300222        -1.746464
 C         2.040463         0.717517         0.434549
 O         2.865343         0.188454         1.238021
 H         3.620765        -1.673930        -4.461929
 H         2.626405        -2.586170        -3.154495
 H         1.991117        -1.923884        -4.740563
 H         2.561654         1.736992        -3.520317
 H         2.259011         0.931483        -4.917790
 H         0.247819        -0.247768        -3.423948
 H         2.855024         1.788608        -1.133309
 H         4.190423         0.011655        -1.863450
 H         3.174918        -1.304387        -1.265516
 H         0.998462         0.974303         0.732620
