19
Iteration:  3309
 C         2.796429        -1.838423        -3.582057
 C         2.466758        -0.323779        -3.100591
 C         1.882576         0.804318        -3.931780
 C         1.091168         0.296544        -2.897508
 O         1.028170         1.034963        -1.695775
 C         2.322692         0.952162        -1.069806
 C         3.382824         0.124426        -1.909571
 C         2.053608         0.543988         0.347664
 O         2.685978        -0.182001         1.133582
 H         3.887874        -2.026206        -3.534168
 H         2.422745        -2.450773        -2.783638
 H         2.072794        -2.081873        -4.388904
 H         2.248402         1.794202        -3.902589
 H         1.664672         0.551663        -5.014487
 H         0.216355        -0.286128        -3.135206
 H         2.733360         1.935717        -0.902990
 H         4.264048         0.625955        -2.278539
 H         3.640893        -0.769926        -1.369861
 H         1.091430         1.075672         0.681826
