19
Iteration:   883
 C         2.480527        -1.687977        -3.974526
 C         2.478551        -0.467541        -3.136471
 C         2.279432         0.983778        -3.889099
 C         1.179902         0.359447        -2.987567
 O         1.071324         0.913367        -1.735086
 C         2.304436         0.707686        -0.990274
 C         3.120103        -0.400355        -1.780200
 C         1.980775         0.384236         0.499804
 O         2.782373         0.521828         1.341980
 H         1.515350        -2.370746        -3.918448
 H         2.850400        -1.246985        -4.993189
 H         3.133935        -2.444361        -3.691430
 H         2.909957         1.727046        -3.394034
 H         2.212471         1.082883        -4.910576
 H         0.340157        -0.031601        -3.470970
 H         2.848883         1.706246        -0.944146
 H         4.062856        -0.005433        -1.881398
 H         3.277236        -1.353502        -1.408781
 H         0.929684         0.165257         0.667014
