19
Iteration:  3698
 C         2.517241        -1.542965        -4.135597
 C         2.405415        -0.448625        -3.078207
 C         2.275172         0.887854        -3.739152
 C         1.154642         0.315897        -2.982753
 O         0.960841         0.816315        -1.631497
 C         2.282919         0.601507        -1.031544
 C         3.106366        -0.452409        -1.700285
 C         2.147449         0.252217         0.429271
 O         2.783195         0.848253         1.234328
 H         3.550929        -1.221165        -4.411877
 H         2.574329        -2.665926        -3.956120
 H         1.938187        -1.431560        -5.071626
 H         2.977049         1.623955        -3.251837
 H         2.460207         0.990546        -4.818859
 H         0.255991         0.055067        -3.597048
 H         2.864069         1.599516        -1.023650
 H         4.168946        -0.247194        -1.574140
 H         2.804957        -1.401034        -1.180364
 H         1.446735        -0.547046         0.764943
