19
Iteration:  2857charge 0 multiplicity 1
 C         2.590193        -1.552160        -4.165543
 C         2.451360        -0.550025        -3.096434
 C         2.314530         0.917611        -3.614166
 C         1.054240         0.308815        -3.024622
 O         0.939467         0.813187        -1.694155
 C         2.249439         0.748176        -1.070645
 C         3.049169        -0.488409        -1.709643
 C         2.158948         0.356820         0.406168
 O         2.854522         0.733431         1.306127
 H         3.564359        -1.498754        -4.804431
 H         2.607464        -2.560771        -3.723646
 H         1.826226        -1.447809        -4.942146
 H         2.820819         1.735242        -3.153818
 H         2.325990         0.979232        -4.793016
 H        -0.008581         0.005661        -3.441795
 H         2.811184         1.720097        -0.999080
 H         4.092524        -0.136048        -1.488744
 H         3.016279        -1.385587        -1.143208
 H         1.446330        -0.301400         0.660555
