19
Iteration:  4449charge 0 multiplicity 1
 C         2.564607        -1.769076        -3.951784
 C         2.460973        -0.414397        -3.135439
 C         2.191132         0.950465        -3.834287
 C         1.119902         0.378198        -2.922053
 O         1.144838         1.001442        -1.665816
 C         2.356432         0.724836        -1.054578
 C         3.031045        -0.428481        -1.742824
 C         1.995354         0.416782         0.341516
 O         2.801657         0.495612         1.290478
 H         3.582413        -1.768939        -4.420186
 H         2.547359        -2.484896        -3.178719
 H         1.915760        -2.094211        -4.716409
 H         2.499819         2.067333        -3.505469
 H         2.114963         1.064152        -4.952997
 H         0.222018        -0.223990        -3.167836
 H         2.999190         1.677905        -1.210437
 H         4.145520        -0.396843        -1.767505
 H         2.850953        -1.387858        -1.341197
 H         0.972562         0.043839         0.522695
