19
Iteration:  2337
 C         2.620456        -1.752890        -3.785217
 C         2.493277        -0.368509        -3.054430
 C         2.167393         0.781546        -3.952919
 C         1.128626         0.352837        -2.984590
 O         1.035783         0.998097        -1.757767
 C         2.285439         0.923975        -0.976976
 C         3.162103        -0.098184        -1.665732
 C         1.869248         0.395112         0.424434
 O         2.918999         0.215037         1.133104
 H         3.566439        -1.990060        -4.105725
 H         2.486659        -2.616433        -3.029387
 H         1.808240        -1.856057        -4.545030
 H         2.731291         1.735513        -3.851639
 H         1.759699         0.408682        -4.987480
 H         0.227289        -0.200926        -3.343916
 H         2.816978         1.901675        -0.894161
 H         4.187568         0.273900        -1.917435
 H         3.154129        -1.087269        -1.357417
 H         0.896166        -0.040974         0.629055
