19
Iteration:  4628charge 0 multiplicity 1
 C         2.555057        -1.679996        -3.962702
 C         2.444560        -0.427412        -3.081180
 C         2.206991         0.949079        -3.827882
 C         1.198435         0.310270        -2.885418
 O         1.132618         0.956529        -1.722997
 C         2.313655         0.781807        -1.034719
 C         3.060825        -0.462565        -1.741165
 C         1.955920         0.471979         0.336681
 O         2.816452         0.459244         1.235190
 H         3.527366        -1.694468        -4.345812
 H         2.403866        -2.509334        -3.294750
 H         1.766400        -1.736555        -4.715430
 H         2.662148         1.910482        -3.516049
 H         2.126411         0.703314        -4.832671
 H         0.225954         0.027754        -3.190626
 H         3.039510         1.635895        -1.168388
 H         4.098422        -0.409597        -1.691305
 H         2.847513        -1.351409        -1.159938
 H         0.921466         0.199703         0.734048
