19
Iteration:  4023charge 0 multiplicity 1
 C         2.514493        -1.715975        -3.934680
 C         2.454321        -0.442205        -3.189492
 C         2.324954         0.903602        -3.784003
 C         1.138468         0.317509        -2.954006
 O         0.969057         0.863285        -1.709229
 C         2.193733         0.755605        -0.985801
 C         3.118661        -0.281469        -1.794390
 C         1.995541         0.563414         0.505785
 O         2.939979         0.347931         1.190865
 H         3.582977        -2.067316        -3.835495
 H         1.890520        -2.464019        -3.491567
 H         2.155331        -1.695004        -4.923430
 H         2.985027         1.741728        -3.337121
 H         2.163502         1.046040        -4.846699
 H         0.262477         0.137583        -3.503006
 H         2.675474         1.750487        -1.103254
 H         4.022692         0.345769        -1.914096
 H         3.532043        -1.137824        -1.315891
 H         0.928150         0.490722         0.862123
