19
Iteration:  4775charge 0 multiplicity 1
 C         2.491491        -1.771670        -3.885613
 C         2.392575        -0.420666        -3.160657
 C         2.200647         0.825157        -4.012206
 C         1.147785         0.436335        -2.935047
 O         1.176833         1.047237        -1.648434
 C         2.441671         0.694688        -0.955367
 C         3.193792        -0.287287        -1.918353
 C         1.927145         0.204773         0.441026
 O         2.683872         0.580926         1.388712
 H         3.497550        -1.764391        -4.417833
 H         2.215060        -2.606893        -3.201760
 H         1.833986        -1.548401        -4.737340
 H         2.854003         1.690164        -3.785791
 H         2.104991         0.496482        -5.040790
 H         0.200806         0.114572        -3.257561
 H         2.989391         1.668458        -0.751589
 H         4.266951         0.102717        -2.138761
 H         3.327874        -1.211743        -1.320300
 H         1.020135        -0.416510         0.589024
