19
Iteration:  4636
 C         2.573794        -1.696893        -3.927913
 C         2.489218        -0.450296        -3.141146
 C         2.192561         0.940949        -3.862259
 C         1.183570         0.324137        -2.928269
 O         1.142835         0.941861        -1.634102
 C         2.339300         0.796152        -1.042535
 C         3.029777        -0.425073        -1.756553
 C         2.013604         0.498870         0.366795
 O         2.758436         0.456629         1.261596
 H         3.424207        -1.924105        -4.599702
 H         2.314986        -2.510131        -3.317883
 H         1.724397        -1.639728        -4.635493
 H         2.780508         1.717127        -3.483070
 H         2.109383         0.822468        -4.932294
 H         0.185513         0.003312        -3.092108
 H         2.958682         1.684149        -1.136285
 H         4.091355        -0.267455        -1.683896
 H         2.825045        -1.427446        -1.376587
 H         0.934396         0.059474         0.384102
