19
Iteration:  1494charge 0 multiplicity 1
 C         2.459841        -1.762312        -3.842315
 C         2.536031        -0.379180        -3.176718
 C         1.976283         0.849906        -4.005263
 C         1.215609         0.232436        -2.840010
 O         1.193948         1.051231        -1.616258
 C         2.457100         0.870761        -1.044199
 C         3.308312        -0.050417        -1.907781
 C         2.148704         0.145729         0.312987
 O         2.473883         0.430641         1.405038
 H         3.342257        -2.026985        -4.427677
 H         2.249068        -2.573694        -3.094384
 H         1.647552        -1.781706        -4.577480
 H         2.417013         1.881281        -3.707972
 H         1.746752         0.441934        -4.969019
 H         0.267684        -0.337838        -2.918542
 H         2.849819         1.830525        -0.806929
 H         4.351969         0.406858        -2.053925
 H         3.549247        -1.055229        -1.364694
 H         1.295412        -0.626750         0.006556
