19
Iteration:  2454
 C         2.700627        -1.660012        -3.944082
 C         2.508022        -0.397553        -3.134169
 C         2.159576         0.905449        -3.819333
 C         1.131031         0.220364        -2.942204
 O         0.966767         0.804321        -1.631362
 C         2.234904         0.835308        -1.072384
 C         3.072012        -0.371134        -1.734594
 C         2.151033         0.870789         0.404317
 O         2.772501         0.168410         1.227966
 H         3.757035        -1.885726        -4.194284
 H         2.535822        -2.587457        -3.343963
 H         2.102576        -1.621704        -4.871972
 H         2.564008         1.823110        -3.536618
 H         1.847095         0.761553        -4.870575
 H         0.286860        -0.107425        -3.566089
 H         2.731528         1.772416        -1.409305
 H         4.169387        -0.196488        -1.765872
 H         2.688058        -1.330489        -1.256387
 H         1.624392         1.698591         0.843185
