19
Iteration:   604charge 0 multiplicity 1
 C         2.621749        -1.739423        -3.909469
 C         2.438399        -0.422548        -3.104493
 C         2.259580         0.880916        -3.898166
 C         1.151095         0.403584        -3.062117
 O         0.996292         1.000189        -1.779374
 C         2.333135         0.852729        -0.990095
 C         3.059315        -0.346623        -1.657356
 C         2.019704         0.453310         0.414314
 O         2.799926         0.297821         1.343523
 H         2.566565        -2.658662        -3.279371
 H         1.947824        -1.754223        -4.791396
 H         3.681006        -1.830370        -4.450500
 H         2.848721         1.704698        -3.652831
 H         2.206019         0.684531        -4.982268
 H         0.153565         0.109345        -3.482692
 H         2.978262         1.753262        -1.167377
 H         4.146010        -0.094153        -1.676098
 H         2.893931        -1.216152        -1.087149
 H         0.865383         0.293045         0.695089
