19
Iteration:  3760charge 0 multiplicity 1
 C         2.433969        -1.642681        -3.924875
 C         2.515598        -0.310758        -3.259786
 C         2.182554         1.037333        -3.873674
 C         1.184089         0.368965        -2.983412
 O         1.141940         0.698549        -1.621851
 C         2.385592         0.613931        -1.050745
 C         3.140205        -0.407013        -1.885155
 C         2.068539         0.304376         0.480248
 O         2.672261         0.741668         1.401432
 H         3.534321        -1.857668        -4.146144
 H         2.085787        -2.290301        -3.111440
 H         1.910571        -1.844330        -4.823017
 H         2.635270         2.032258        -3.607335
 H         2.037267         0.768576        -4.843430
 H         0.190836        -0.064762        -3.313560
 H         2.849459         1.601591        -1.070936
 H         4.254138        -0.195988        -1.802407
 H         2.920737        -1.436466        -1.572353
 H         1.254945        -0.575267         0.452241
