19
Iteration:    71charge 0 multiplicity 1
 C         2.683188        -1.731602        -3.948662
 C         2.540972        -0.413102        -3.136240
 C         2.308817         0.956772        -3.865811
 C         1.217887         0.331330        -3.077542
 O         0.868314         0.877146        -1.763163
 C         2.098711         0.780684        -0.922790
 C         2.975507        -0.323885        -1.636716
 C         1.965188         0.451465         0.536600
 O         3.038494         0.427208         1.172923
 H         2.146511        -2.524779        -3.394128
 H         2.212127        -1.695436        -5.058039
 H         3.785798        -2.031538        -4.095221
 H         2.756523         1.962216        -3.629035
 H         2.068374         0.773383        -4.924923
 H         0.242166         0.093187        -3.560181
 H         2.510549         1.754446        -0.995830
 H         4.067964         0.030447        -1.545747
 H         2.921029        -1.385442        -1.166592
 H         0.925524         0.275029         1.084271
