19
Iteration:  2950charge 0 multiplicity 1
 C         2.647064        -1.633496        -4.071597
 C         2.484558        -0.481739        -3.069876
 C         2.258044         0.883087        -3.774667
 C         1.126901         0.312241        -2.869410
 O         0.905495         0.774074        -1.628541
 C         2.200596         0.845284        -1.037928
 C         3.045222        -0.276591        -1.738141
 C         2.033272         0.491678         0.365475
 O         2.966479         0.437153         1.207422
 H         3.706032        -2.116957        -4.035219
 H         1.898720        -2.501360        -3.995557
 H         2.671784        -1.172234        -5.113987
 H         2.854497         1.720776        -3.501829
 H         2.057087         0.844260        -4.874981
 H         0.255486        -0.124344        -3.361956
 H         2.564064         1.926548        -1.162975
 H         4.096647         0.067777        -1.633266
 H         3.039261        -1.208685        -1.025275
 H         0.981729         0.235756         0.462710
