19
Iteration:  3919charge 0 multiplicity 1
 C         2.507443        -1.741550        -3.914986
 C         2.465863        -0.463300        -3.136461
 C         2.210949         0.708454        -3.998876
 C         1.120888         0.416058        -2.989214
 O         0.996937         1.013547        -1.608826
 C         2.353762         0.922538        -1.009374
 C         3.256281        -0.113700        -1.785641
 C         2.000586         0.337484         0.385824
 O         2.783132         0.292687         1.397729
 H         3.355945        -1.863885        -4.540736
 H         2.582525        -2.646577        -3.247224
 H         1.682406        -1.828097        -4.698564
 H         2.957489         1.536182        -3.791174
 H         1.865737         0.564279        -4.958485
 H         0.150553         0.091635        -3.447563
 H         2.832157         1.942377        -1.073699
 H         4.123493         0.471855        -2.083682
 H         3.539599        -1.023361        -1.208345
 H         1.062959        -0.193418         0.483184
