19
Iteration:   195
 C         2.530631        -1.714425        -4.121784
 C         2.469845        -0.450048        -3.239729
 C         2.308355         0.953001        -3.696103
 C         1.122254         0.414423        -2.911421
 O         1.134994         0.852767        -1.532871
 C         2.424596         0.656871        -1.063114
 C         3.013917        -0.488655        -1.865556
 C         2.359943         0.228491         0.389316
 O         2.350497         0.911008         1.336032
 H         2.109868        -2.663390        -3.675933
 H         1.931824        -1.582701        -4.964331
 H         3.571424        -1.833362        -4.473444
 H         2.819063         1.670589        -3.102871
 H         2.180677         1.049182        -4.770672
 H         0.148427        -0.016803        -3.161969
 H         3.076085         1.498163        -1.111344
 H         4.103393        -0.417037        -1.873311
 H         2.860499        -1.537598        -1.395801
 H         2.288643        -0.821981         0.448009
