19
Iteration:  3308
 C         2.795474        -1.838086        -3.580490
 C         2.480741        -0.317269        -3.100836
 C         1.876205         0.801637        -3.932165
 C         1.089898         0.291523        -2.902666
 O         1.029339         1.037594        -1.703521
 C         2.319675         0.962735        -1.070122
 C         3.374187         0.118697        -1.900744
 C         2.061519         0.540120         0.354965
 O         2.682775        -0.180641         1.130711
 H         3.898252        -2.059228        -3.586376
 H         2.403614        -2.485775        -2.787991
 H         2.042118        -2.067913        -4.397733
 H         2.247693         1.836263        -3.892842
 H         1.648430         0.553348        -5.003107
 H         0.231773        -0.310864        -3.114105
 H         2.748343         1.941695        -0.901701
 H         4.232863         0.613531        -2.266347
 H         3.675950        -0.754893        -1.328113
 H         1.126255         1.037363         0.680181
