19
Iteration:  2209charge 0 multiplicity 1
 C         2.493778        -1.808827        -3.739349
 C         2.501264        -0.458323        -3.057173
 C         2.111807         0.743645        -3.836545
 C         1.114839         0.327504        -2.867566
 O         1.113623         1.191837        -1.751494
 C         2.321184         0.891641        -1.027016
 C         3.341966         0.022655        -1.836374
 C         2.058676         0.104443         0.213183
 O         2.659974         0.339975         1.290350
 H         3.489781        -1.978265        -4.303813
 H         2.237912        -2.660592        -3.159649
 H         1.874146        -1.876489        -4.702928
 H         2.449396         1.804085        -3.806832
 H         1.683064         0.573952        -4.837371
 H         0.244586        -0.293189        -3.199843
 H         2.623904         1.919889        -0.732958
 H         4.298881         0.471660        -2.204636
 H         3.678624        -0.867418        -1.232486
 H         1.344711        -0.724786         0.033647
