19
Iteration:  2234charge 0 multiplicity 1
 C         2.493958        -1.761455        -3.669114
 C         2.439182        -0.374223        -3.124108
 C         2.102706         0.809501        -4.062835
 C         1.147309         0.278900        -2.929336
 O         1.142652         1.089754        -1.765523
 C         2.379536         0.878010        -0.991017
 C         3.241122         0.044696        -1.843987
 C         2.048398         0.156731         0.399711
 O         2.692905         0.286847         1.363119
 H         3.530788        -1.981093        -4.115123
 H         2.123217        -2.578531        -2.987738
 H         1.911309        -1.953770        -4.571118
 H         2.532676         1.712654        -3.905740
 H         1.998245         0.537644        -5.121882
 H         0.267291        -0.276478        -3.281543
 H         2.654186         1.881514        -0.707529
 H         4.109442         0.444528        -2.301532
 H         3.758336        -0.872917        -1.407401
 H         1.143961        -0.576481         0.152663
