19
Iteration:   909charge 0 multiplicity 1
 C         2.619330        -1.654871        -4.051621
 C         2.494824        -0.430765        -3.181351
 C         2.179095         0.767206        -3.972995
 C         1.100797         0.418550        -2.976721
 O         1.116016         0.985794        -1.653886
 C         2.368310         0.804544        -1.025281
 C         3.039809        -0.370626        -1.760138
 C         2.033382         0.471102         0.472757
 O         2.750875         0.395208         1.468179
 H         1.759774        -2.270662        -4.137507
 H         3.160807        -1.349918        -4.885715
 H         3.327303        -2.463809        -3.575712
 H         2.744747         1.714948        -3.808568
 H         1.790126         0.785788        -5.073364
 H         0.123934        -0.054768        -3.365701
 H         2.957742         1.705688        -1.060155
 H         4.170403        -0.335671        -1.605419
 H         2.710856        -1.370727        -1.411276
 H         0.984984         0.228320         0.509673
