19
Iteration:  4922charge 0 multiplicity 1
 C         2.403343        -1.744345        -3.886668
 C         2.515897        -0.385640        -3.135840
 C         2.310139         0.847700        -3.911037
 C         1.212213         0.414829        -3.023514
 O         1.002765         0.848256        -1.653221
 C         2.378859         0.869244        -1.059710
 C         3.111445        -0.268724        -1.841331
 C         2.132706         0.324602         0.427922
 O         2.739757         0.502397         1.409552
 H         3.433639        -2.199188        -4.025844
 H         1.760656        -2.460805        -3.281180
 H         1.937048        -1.431603        -4.869266
 H         2.810901         1.834418        -3.759419
 H         1.923869         0.713215        -4.932867
 H         0.207627         0.003451        -3.389824
 H         2.775977         1.860536        -0.943704
 H         4.156552        -0.223456        -1.943272
 H         2.786002        -1.293410        -1.496536
 H         1.183102        -0.358118         0.371621
