19
Iteration:  1656charge 0 multiplicity 1
 C         2.722705        -1.760985        -3.830653
 C         2.358240        -0.461740        -3.252334
 C         2.023591         0.800189        -4.129480
 C         1.034794         0.409238        -2.931688
 O         1.154132         1.096768        -1.633917
 C         2.431394         0.843916        -1.001465
 C         3.174958        -0.173061        -1.909435
 C         2.212689         0.177414         0.368625
 O         2.567190         0.427795         1.584275
 H         3.718680        -1.623417        -4.254717
 H         2.662718        -2.558996        -2.950908
 H         1.898021        -2.081737        -4.581225
 H         2.629790         1.824052        -4.116449
 H         1.587470         0.576155        -5.052660
 H        -0.056185         0.084862        -3.191881
 H         2.980998         1.850210        -0.846013
 H         4.149483         0.231933        -2.140418
 H         3.398213        -1.204163        -1.497631
 H         1.608559        -0.760763         0.335255
