19
Iteration:   729
 C         2.486454        -1.685598        -4.086062
 C         2.483606        -0.379937        -3.254434
 C         2.305431         0.887813        -3.886077
 C         1.200231         0.340346        -3.016725
 O         1.114370         0.826873        -1.655230
 C         2.376983         0.635323        -0.981689
 C         3.102034        -0.464255        -1.802598
 C         1.987442         0.583531         0.522187
 O         2.702831         0.563799         1.481707
 H         1.906122        -2.603228        -3.639782
 H         2.075097        -1.562276        -5.204633
 H         3.493834        -1.782302        -4.331665
 H         2.702722         1.792593        -3.432380
 H         2.153492         1.047643        -4.986538
 H         0.138140         0.040205        -3.286022
 H         2.863678         1.607614        -1.183263
 H         4.134855        -0.259051        -1.578832
 H         2.811637        -1.499708        -1.486984
 H         0.969156         0.701827         0.642665
