19
Iteration:  1058charge 0 multiplicity 1
 C         2.597955        -1.776584        -3.797711
 C         2.425693        -0.414156        -3.187141
 C         2.235735         0.899448        -3.897545
 C         1.100494         0.416129        -3.009025
 O         0.990435         0.924268        -1.670264
 C         2.255933         0.886146        -1.048218
 C         3.112284        -0.215090        -1.736049
 C         2.053579         0.465815         0.421917
 O         2.895194         0.244171         1.241753
 H         3.285111        -1.719227        -4.796063
 H         3.047318        -2.595867        -3.171476
 H         1.618039        -2.171635        -4.001027
 H         2.850759         1.698900        -3.632861
 H         2.277183         0.940019        -5.003374
 H         0.112750         0.006421        -3.489961
 H         2.850522         1.817727        -1.035833
 H         4.157732         0.080367        -1.670127
 H         2.917916        -1.238091        -1.221385
 H         0.957865         0.087354         0.583789
