19
Iteration:   700charge 0 multiplicity 1
 C         2.435061        -1.717625        -3.899776
 C         2.476604        -0.422918        -3.100515
 C         2.407502         0.948365        -3.812762
 C         1.255227         0.424631        -3.046643
 O         0.959789         0.791150        -1.720309
 C         2.288458         0.710263        -0.985523
 C         3.117191        -0.369679        -1.786460
 C         1.927759         0.516135         0.460854
 O         2.858321         0.459681         1.258121
 H         1.710192        -2.439001        -3.635247
 H         2.389150        -1.346320        -4.856386
 H         3.461987        -2.207896        -4.018913
 H         2.825569         1.848238        -3.460527
 H         2.284697         0.933312        -4.891932
 H         0.308862         0.145688        -3.570945
 H         2.687607         1.709813        -1.126120
 H         4.141851         0.044590        -1.795698
 H         3.071174        -1.430752        -1.328773
 H         0.762886         0.396447         0.792378
