19
Iteration:  3922charge 0 multiplicity 1
 C         2.496041        -1.753498        -3.885458
 C         2.482269        -0.462812        -3.140227
 C         2.218619         0.729369        -3.986500
 C         1.114417         0.416968        -2.994621
 O         0.996523         1.008795        -1.635022
 C         2.375006         0.900458        -1.002759
 C         3.219578        -0.097564        -1.772514
 C         2.018115         0.336044         0.384151
 O         2.780557         0.293587         1.380512
 H         3.442004        -1.765762        -4.501094
 H         2.595865        -2.634131        -3.296304
 H         1.757416        -1.823992        -4.665864
 H         2.867459         1.548306        -3.759489
 H         1.770442         0.609805        -4.995077
 H         0.121251         0.054736        -3.382219
 H         2.880760         1.868099        -1.021070
 H         4.172971         0.376545        -2.148507
 H         3.467929        -0.989474        -1.255769
 H         1.025609        -0.167517         0.542887
