19
Iteration:  3695
 C         2.517197        -1.533401        -4.149050
 C         2.399560        -0.432065        -3.061362
 C         2.271326         0.910592        -3.749526
 C         1.169342         0.318601        -2.951977
 O         0.975966         0.805920        -1.647556
 C         2.253630         0.594022        -1.062949
 C         3.100506        -0.469832        -1.690145
 C         2.114855         0.243523         0.412025
 O         2.812990         0.864737         1.258536
 H         3.621226        -1.289479        -4.466773
 H         2.520103        -2.618512        -3.856349
 H         2.038504        -1.526688        -5.101433
 H         2.903900         1.677889        -3.209869
 H         2.401747         0.937268        -4.751615
 H         0.285790        -0.021223        -3.556118
 H         2.912308         1.487872        -1.080629
 H         4.221601        -0.261182        -1.603145
 H         2.737908        -1.379746        -1.170223
 H         1.433468        -0.561784         0.721594
