19
Iteration:  1188
 C         2.451542        -1.707735        -3.943141
 C         2.456472        -0.416073        -3.130892
 C         2.335677         0.984073        -3.724411
 C         1.172282         0.416402        -3.029931
 O         0.934276         0.794197        -1.708457
 C         2.105520         0.652255        -1.002560
 C         3.160811        -0.285142        -1.801436
 C         2.140025         0.189076         0.486155
 O         2.899586         0.739878         1.184278
 H         3.417430        -2.199050        -4.090362
 H         1.642739        -2.312025        -3.470143
 H         2.256287        -1.421656        -4.968077
 H         2.925324         1.726685        -3.119423
 H         2.378057         0.933379        -4.763534
 H         0.316791        -0.111112        -3.616864
 H         2.679546         1.564867        -0.838226
 H         4.209900        -0.039120        -1.938316
 H         3.230035        -1.298615        -1.269598
 H         1.356318        -0.631006         0.873158
