19
Iteration:  2100charge 0 multiplicity 1
 C         2.482401        -1.795212        -3.805370
 C         2.433185        -0.455324        -3.073102
 C         2.071992         0.763099        -3.914412
 C         1.143542         0.311451        -2.808102
 O         1.116068         1.094411        -1.648914
 C         2.505571         0.896386        -1.030073
 C         3.375768         0.010279        -1.877035
 C         2.099740         0.108374         0.221727
 O         2.509671         0.411343         1.265965
 H         3.586773        -1.848603        -4.152120
 H         2.266119        -2.588517        -3.098700
 H         1.603389        -1.886967        -4.544048
 H         2.521192         1.806241        -3.722845
 H         1.783629         0.504580        -4.880633
 H         0.185108        -0.119847        -3.106900
 H         2.704089         1.990459        -0.831013
 H         4.335610         0.454477        -2.230245
 H         3.695267        -0.899227        -1.300965
 H         1.580779        -0.824538         0.094333
