19
Iteration:   794
 C         2.525957        -1.680626        -4.056019
 C         2.405180        -0.437989        -3.154948
 C         2.391342         0.941830        -3.771794
 C         1.194946         0.398146        -2.970467
 O         1.073033         0.964556        -1.767229
 C         2.223992         0.656186        -1.007958
 C         3.004558        -0.522485        -1.701330
 C         2.013574         0.261818         0.492240
 O         2.815615         0.708872         1.305651
 H         2.929736        -2.510190        -3.353249
 H         1.777545        -1.867859        -4.919328
 H         3.346595        -1.440643        -4.698553
 H         2.983253         1.785360        -3.439363
 H         2.260742         1.046657        -4.890363
 H         0.204058         0.362556        -3.510349
 H         2.987359         1.490661        -0.905656
 H         4.044498        -0.351247        -1.610358
 H         2.672733        -1.430413        -1.331377
 H         1.084385        -0.510941         0.750230
