19
Iteration:  4053charge 0 multiplicity 1
 C         2.493785        -1.653475        -3.859256
 C         2.536749        -0.347198        -3.185422
 C         2.220868         1.055841        -3.841124
 C         1.199783         0.329262        -3.002061
 O         0.980629         0.709721        -1.702296
 C         2.273472         0.744088        -1.070961
 C         3.030699        -0.437964        -1.673293
 C         2.058514         0.573583         0.366116
 O         2.924447         0.384378         1.293054
 H         3.546803        -1.858127        -4.238361
 H         2.194314        -2.436759        -3.125972
 H         1.815370        -1.691108        -4.719912
 H         2.811857         1.950098        -3.640425
 H         2.119175         1.070502        -4.947810
 H         0.305425         0.105992        -3.497104
 H         2.651607         1.752516        -1.381916
 H         4.108064        -0.103962        -1.547900
 H         2.851031        -1.425651        -1.203710
 H         0.979201         0.693578         0.704646
