19
Iteration:   174
 C         2.530615        -1.540371        -4.146410
 C         2.383601        -0.477447        -3.155039
 C         2.292054         0.908343        -3.899802
 C         1.165907         0.343814        -2.999747
 O         1.068244         0.869326        -1.662837
 C         2.425425         0.617914        -0.983452
 C         3.073179        -0.514884        -1.768495
 C         2.299284         0.182034         0.515699
 O         2.477214         0.934698         1.432298
 H         2.282157        -2.648060        -3.621073
 H         1.892732        -1.462106        -4.959738
 H         3.605636        -1.532473        -4.420579
 H         2.878579         1.722388        -3.523382
 H         2.074118         0.835866        -4.968879
 H         0.127725         0.236350        -3.308203
 H         2.981806         1.545503        -1.061386
 H         4.139676        -0.569608        -1.842327
 H         2.821979        -1.518253        -1.320295
 H         2.042345        -0.947098         0.631356
