19
Iteration:  1588
 C         2.378616        -1.637955        -3.804942
 C         2.541170        -0.335230        -3.164748
 C         1.965913         0.813014        -4.024627
 C         1.168429         0.168368        -2.854835
 O         1.227331         0.970747        -1.658226
 C         2.467731         0.811770        -0.987271
 C         3.476531        -0.053046        -1.933017
 C         2.144287         0.104537         0.333080
 O         2.411352         0.514828         1.401520
 H         3.243229        -2.020691        -4.312781
 H         2.074441        -2.341116        -3.001446
 H         1.432455        -1.609211        -4.488827
 H         2.335215         1.686211        -3.604482
 H         1.750556         0.669132        -5.137079
 H         0.203050        -0.283876        -3.016224
 H         2.991442         1.815480        -0.748683
 H         4.385878         0.483493        -2.188011
 H         3.736356        -1.029477        -1.468679
 H         1.540682        -0.847724        -0.023477
