19
Iteration:  4709charge 0 multiplicity 1
 C         2.385239        -1.763515        -3.783102
 C         2.468357        -0.413513        -3.104488
 C         2.252492         0.948602        -3.889087
 C         1.224555         0.418062        -2.977559
 O         1.085646         0.971192        -1.677567
 C         2.307994         0.753977        -1.005233
 C         3.209955        -0.300848        -1.820205
 C         2.057367         0.170593         0.373560
 O         2.685380         0.588089         1.242512
 H         3.364582        -2.223872        -4.172385
 H         1.833194        -2.639260        -3.271728
 H         2.000307        -1.609617        -4.803076
 H         2.992318         1.722580        -3.662396
 H         1.994762         0.860548        -5.003025
 H         0.203305         0.099104        -3.287007
 H         2.947148         1.675299        -0.871918
 H         4.172272         0.308826        -2.009420
 H         3.387972        -1.274775        -1.295637
 H         1.517463        -0.874244         0.474256
