19
Iteration:  4634
 C         2.572144        -1.686219        -3.935823
 C         2.480833        -0.450687        -3.121901
 C         2.193999         0.952150        -3.851688
 C         1.198868         0.319058        -2.907992
 O         1.150899         0.943524        -1.653964
 C         2.317763         0.797067        -1.040197
 C         3.022928        -0.433139        -1.764134
 C         2.017680         0.495889         0.374784
 O         2.754017         0.456464         1.234271
 H         3.513340        -1.875998        -4.605746
 H         2.289134        -2.545861        -3.253315
 H         1.718758        -1.662212        -4.647225
 H         2.764171         1.771710        -3.460974
 H         2.112836         0.744971        -4.966411
 H         0.132916         0.009833        -3.076216
 H         2.968739         1.652597        -1.166206
 H         4.172278        -0.311059        -1.675405
 H         2.848024        -1.452688        -1.309162
 H         0.980228         0.087861         0.501096
