19
Iteration:  4004
 C         2.585558        -1.781690        -3.937080
 C         2.351903        -0.471437        -3.039845
 C         2.300899         0.836834        -3.889371
 C         1.161250         0.430493        -3.047164
 O         0.891216         0.884013        -1.671095
 C         2.228248         0.862663        -1.029843
 C         3.123492        -0.133962        -1.760762
 C         2.110356         0.428815         0.459086
 O         2.938371         0.302575         1.287171
 H         3.609730        -2.115749        -3.853439
 H         1.849403        -2.605861        -3.764789
 H         2.299954        -1.451358        -4.968376
 H         2.964512         1.750023        -3.714714
 H         2.224246         0.783378        -4.923505
 H         0.230641         0.083744        -3.543634
 H         2.538496         1.910723        -1.086203
 H         4.168980         0.023427        -1.952955
 H         3.075708        -1.126229        -1.198053
 H         1.049421         0.438159         0.754867
