19
Iteration:   248
 C         2.245593        -1.621990        -4.095943
 C         2.501947        -0.389816        -3.289078
 C         2.245459         1.000414        -3.873509
 C         1.280455         0.331062        -2.877099
 O         1.206821         0.714706        -1.518543
 C         2.553656         0.476093        -0.945596
 C         3.381971        -0.421219        -1.953305
 C         2.213531         0.138363         0.532007
 O         2.186433         1.071080         1.339067
 H         1.752211        -2.355408        -3.534403
 H         1.585737        -1.326643        -4.988756
 H         3.215038        -2.134957        -4.460566
 H         2.931336         1.823304        -3.710708
 H         1.787087         1.010435        -4.847956
 H         0.240772         0.164397        -3.200703
 H         3.056216         1.429722        -0.811793
 H         4.423083        -0.083109        -2.120833
 H         3.401829        -1.509000        -1.557054
 H         1.860041        -0.989351         0.805573
