19
Iteration:   764
 C         2.577750        -1.624194        -4.123970
 C         2.428659        -0.479266        -3.181819
 C         2.258468         0.901339        -3.855835
 C         1.138786         0.434733        -2.942218
 O         1.145421         0.879857        -1.656384
 C         2.422769         0.644025        -1.054821
 C         3.025528        -0.563811        -1.687684
 C         2.029694         0.518011         0.397068
 O         2.669670         0.624851         1.451529
 H         2.889007        -2.615110        -3.725503
 H         1.726458        -1.694744        -4.853955
 H         3.490607        -1.379996        -4.675071
 H         2.608166         1.803019        -3.424944
 H         2.146365         0.916653        -4.916440
 H         0.150155         0.203806        -3.350125
 H         3.198973         1.369412        -1.221049
 H         4.103336        -0.550500        -1.565979
 H         2.667817        -1.604148        -1.320964
 H         1.022605         0.254159         0.395241
