19
Iteration:  4836
 C         2.457159        -1.707318        -3.860713
 C         2.424332        -0.392178        -3.171022
 C         2.210066         0.863523        -3.985408
 C         1.171772         0.418252        -2.873830
 O         1.136068         0.951276        -1.658344
 C         2.449101         0.844205        -1.114531
 C         3.146452        -0.321952        -1.793815
 C         2.157483         0.260064         0.296601
 O         2.587041         0.495797         1.494587
 H         3.368346        -1.880607        -4.386034
 H         2.359786        -2.669997        -3.314959
 H         1.658528        -1.945356        -4.546203
 H         2.992821         1.696381        -4.049983
 H         1.907188         0.583670        -5.078971
 H         0.148550         0.196386        -3.410788
 H         2.933339         1.816159        -1.144444
 H         4.220920        -0.162986        -1.858024
 H         3.009066        -1.257692        -1.158464
 H         1.259787        -0.352408         0.273486
