19
Iteration:  4060charge 0 multiplicity 1
 C         2.531325        -1.639369        -3.905607
 C         2.492162        -0.304452        -3.159630
 C         2.263350         0.998742        -3.842271
 C         1.230897         0.345321        -3.014012
 O         0.958575         0.694346        -1.685781
 C         2.264453         0.755961        -1.093218
 C         2.998867        -0.419843        -1.669340
 C         2.121099         0.628001         0.427255
 O         2.897771         0.379406         1.301010
 H         3.427136        -1.932566        -4.365740
 H         2.365769        -2.294858        -3.021988
 H         1.816242        -1.695589        -4.797912
 H         2.830937         1.824325        -3.566011
 H         1.857717         0.884654        -4.881710
 H         0.240584         0.019597        -3.480237
 H         2.835619         1.609968        -1.477763
 H         4.054027        -0.212652        -1.636514
 H         2.634647        -1.439173        -1.415641
 H         1.041692         0.422064         0.547266
