19
Iteration:  3888
 C         2.425716        -1.742992        -3.843239
 C         2.459286        -0.417592        -3.155726
 C         2.177622         0.803965        -3.952614
 C         1.188503         0.303916        -3.009645
 O         1.095561         0.986750        -1.674584
 C         2.398304         0.847414        -1.027238
 C         3.249770        -0.081431        -1.829122
 C         1.999257         0.242184         0.433996
 O         2.724681         0.391021         1.377833
 H         3.272009        -1.819615        -4.498123
 H         2.443697        -2.621501        -3.182832
 H         1.515580        -1.871537        -4.472174
 H         2.751433         1.694646        -3.584342
 H         1.938379         0.948968        -4.941902
 H         0.279961        -0.170683        -3.473892
 H         2.812743         1.860373        -0.873962
 H         4.188805         0.447599        -2.047547
 H         3.549110        -0.957751        -1.274647
 H         0.969776        -0.278106         0.366550
