19
Iteration:    79
 C         2.638105        -1.708562        -3.950853
 C         2.558665        -0.408628        -3.160508
 C         2.314323         0.944555        -3.835650
 C         1.229243         0.305131        -2.981464
 O         0.939832         0.813295        -1.744397
 C         2.056473         0.765589        -1.000701
 C         2.946305        -0.288928        -1.711007
 C         1.991989         0.485702         0.535872
 O         2.997981         0.454397         1.214381
 H         2.143089        -2.499418        -3.564792
 H         2.148796        -1.516468        -4.939901
 H         3.677199        -1.891641        -4.148425
 H         2.970390         1.781771        -3.627405
 H         2.111840         0.744824        -4.903535
 H         0.360506         0.109695        -3.607346
 H         2.612753         1.738662        -1.045116
 H         3.994396        -0.014201        -1.468341
 H         2.856219        -1.289807        -1.236487
 H         0.926602         0.155283         0.933264
