19
Iteration:  1769
 C         2.709104        -1.626499        -3.832389
 C         2.427944        -0.338750        -3.178543
 C         2.204665         0.932227        -3.897368
 C         1.120950         0.344571        -3.025834
 O         0.978046         0.853324        -1.736548
 C         2.185008         0.666211        -1.024480
 C         2.987851        -0.368013        -1.744356
 C         1.988839         0.475591         0.478305
 O         3.017899         0.427563         1.263870
 H         3.816182        -1.586670        -4.242414
 H         2.508542        -2.524272        -3.118555
 H         2.139087        -1.881499        -4.729380
 H         2.669127         1.871737        -3.545783
 H         2.175382         0.794419        -4.975870
 H         0.208744        -0.059637        -3.443251
 H         2.797413         1.594695        -1.106248
 H         4.029503        -0.044196        -1.529778
 H         2.915254        -1.335553        -1.221048
 H         0.939414         0.393680         0.828263
