19
Iteration:  2670charge 0 multiplicity 1
 C         2.532679        -1.780478        -3.893370
 C         2.422347        -0.364988        -3.084531
 C         2.076106         0.821520        -3.951701
 C         1.113802         0.334998        -2.934105
 O         1.159383         1.024611        -1.689271
 C         2.351069         0.751841        -0.974656
 C         3.317255        -0.191015        -1.866566
 C         2.024734         0.343268         0.391070
 O         2.665871         0.428657         1.364645
 H         3.362238        -1.659551        -4.542415
 H         2.791944        -2.612507        -3.332679
 H         1.783303        -1.908098        -4.632866
 H         2.777724         1.641908        -3.749376
 H         1.680679         0.625154        -4.986599
 H         0.129439        -0.019569        -3.230703
 H         3.003574         1.615400        -0.831076
 H         4.238400         0.272640        -2.110491
 H         3.528421        -1.140806        -1.376506
 H         1.066731        -0.300113         0.421399
