19
Iteration:  4923
 C         2.409786        -1.749247        -3.893868
 C         2.518008        -0.383564        -3.141664
 C         2.303480         0.841135        -3.906071
 C         1.213079         0.417710        -3.025676
 O         1.000479         0.847327        -1.654961
 C         2.375205         0.878750        -1.053659
 C         3.111247        -0.277817        -1.844346
 C         2.135329         0.329669         0.421440
 O         2.740540         0.499254         1.416296
 H         3.413950        -2.184721        -4.015134
 H         1.767662        -2.464475        -3.273355
 H         1.931718        -1.454990        -4.838350
 H         2.807223         1.857146        -3.733552
 H         1.922701         0.745130        -4.939810
 H         0.229465         0.043592        -3.361024
 H         2.778929         1.858153        -0.998827
 H         4.176826        -0.240626        -1.925464
 H         2.786789        -1.286362        -1.489502
 H         1.165708        -0.350910         0.388146
