19
Iteration:  3594charge 0 multiplicity 1
 C         2.599135        -1.617376        -4.012655
 C         2.490383        -0.456417        -3.069818
 C         2.217170         0.925134        -3.761058
 C         1.175287         0.275732        -2.992760
 O         0.919959         0.771892        -1.739908
 C         2.196762         0.789831        -1.072181
 C         3.135123        -0.287933        -1.692340
 C         1.986313         0.480431         0.452487
 O         2.994261         0.486971         1.228851
 H         3.525124        -1.927614        -4.562658
 H         2.158831        -2.511558        -3.587341
 H         1.884443        -1.394003        -4.882314
 H         2.487778         1.803517        -3.210583
 H         2.337668         0.938447        -4.889772
 H         0.380986        -0.188634        -3.546012
 H         2.610414         1.825618        -1.064043
 H         4.216232        -0.073197        -1.483528
 H         2.719915        -1.077714        -1.031717
 H         1.079493        -0.109305         0.873441
