19
Iteration:  2361
 C         2.675867        -1.755493        -3.650640
 C         2.447398        -0.384827        -3.153693
 C         2.170434         0.948844        -3.993066
 C         1.095733         0.312998        -3.022364
 O         0.985709         0.977189        -1.751164
 C         2.216557         0.786702        -1.115842
 C         3.116051        -0.192953        -1.799344
 C         2.035341         0.490760         0.457203
 O         2.902414         0.186627         1.321441
 H         3.691637        -1.905002        -3.942519
 H         2.646279        -2.506680        -2.910632
 H         1.962289        -1.947846        -4.469052
 H         2.828501         1.709349        -3.584317
 H         2.032058         0.823124        -5.172964
 H         0.121352        -0.125392        -3.383675
 H         2.821477         1.730108        -1.037915
 H         4.096335         0.264664        -1.920148
 H         3.085491        -1.155806        -1.477905
 H         1.039670         0.756328         0.765742
