19
Iteration:   111
 C         2.534582        -1.678713        -4.033179
 C         2.420831        -0.412486        -3.125730
 C         2.296197         1.049615        -3.712321
 C         1.154887         0.352056        -3.040187
 O         0.999126         0.657728        -1.655853
 C         2.324093         0.711050        -1.084050
 C         3.165711        -0.484243        -1.730367
 C         2.016739         0.504981         0.351430
 O         2.774630         0.632082         1.370957
 H         2.327616        -2.569480        -3.453542
 H         1.935961        -1.610354        -4.910081
 H         3.529270        -1.880948        -4.346205
 H         2.630786         2.050710        -3.439194
 H         2.405866         0.944853        -4.794329
 H         0.197786         0.284149        -3.584245
 H         2.936567         1.671166        -1.220547
 H         4.135824        -0.064083        -1.932914
 H         3.110989        -1.343043        -1.121636
 H         1.074955         0.111422         0.522196
