19
Iteration:  3055charge 0 multiplicity 1
 C         2.585136        -1.721831        -3.891640
 C         2.529272        -0.428482        -2.988732
 C         2.152400         0.804198        -3.832128
 C         1.103802         0.188954        -2.985952
 O         0.900191         0.962702        -1.652762
 C         2.251941         0.967822        -1.021649
 C         3.324460         0.013963        -1.800072
 C         2.023131         0.486731         0.384381
 O         2.842775         0.097839         1.150735
 H         3.394817        -1.802420        -4.632564
 H         2.684450        -2.686287        -3.343136
 H         1.610128        -1.809444        -4.374420
 H         2.622399         1.756078        -3.521230
 H         2.193452         0.634484        -4.924812
 H         0.229256        -0.385841        -3.312181
 H         2.631506         2.012821        -1.005231
 H         4.276017         0.642795        -2.083027
 H         3.527445        -0.859472        -1.162142
 H         0.924428         0.524377         0.681529
