19
Iteration:  4845
 C         2.489404        -1.765645        -3.843285
 C         2.395005        -0.435125        -3.079165
 C         2.214354         0.901827        -3.971988
 C         1.156993         0.497483        -3.000452
 O         1.084797         0.910444        -1.633666
 C         2.500423         0.851251        -1.134556
 C         3.172815        -0.280350        -1.822910
 C         2.137799         0.246569         0.400922
 O         2.597567         0.498804         1.435816
 H         3.457611        -1.954813        -4.396518
 H         2.282619        -2.540971        -3.087665
 H         1.677020        -1.749034        -4.644755
 H         2.953380         1.679595        -3.977558
 H         1.969663         0.490889        -4.971602
 H         0.029254         0.396532        -3.294027
 H         3.003494         1.766601        -1.132296
 H         4.209249        -0.265754        -1.992036
 H         2.957836        -1.303308        -1.382621
 H         1.364032        -0.508429         0.134759
