19
Iteration:  4719
 C         2.394118        -1.721233        -3.800757
 C         2.445831        -0.426256        -3.151898
 C         2.271870         0.875645        -3.870870
 C         1.181180         0.417878        -2.983821
 O         1.080494         0.951444        -1.712499
 C         2.392273         0.742724        -1.018589
 C         3.173820        -0.242994        -1.765242
 C         2.107526         0.162108         0.256138
 O         2.685812         0.584179         1.338662
 H         3.429698        -2.137702        -3.801282
 H         1.760744        -2.401976        -3.092335
 H         1.804027        -1.693278        -4.706925
 H         2.672195         1.807880        -3.429582
 H         2.023115         1.025493        -4.992243
 H         0.175697         0.063680        -3.379978
 H         2.870071         1.764973        -0.889307
 H         4.288758         0.080494        -1.837267
 H         3.252682        -1.262079        -1.335719
 H         1.488448        -0.761993         0.126866
