19
Iteration:  3934charge 0 multiplicity 1
 C         2.562897        -1.782809        -3.793943
 C         2.382140        -0.400163        -3.092746
 C         2.175637         0.874522        -3.938093
 C         1.156793         0.359547        -2.950690
 O         1.081770         0.992885        -1.752570
 C         2.334441         0.831078        -0.986327
 C         3.153529        -0.141604        -1.861128
 C         2.029821         0.316510         0.374850
 O         2.817643         0.308719         1.332083
 H         3.569290        -1.746590        -4.303269
 H         2.457330        -2.649573        -3.183601
 H         1.786360        -1.841050        -4.515769
 H         2.609641         1.819059        -3.791933
 H         1.985419         0.726658        -5.057985
 H         0.179107        -0.053799        -3.213565
 H         2.798939         1.788345        -0.772669
 H         4.233898         0.161821        -1.921744
 H         3.145331        -1.052127        -1.289226
 H         0.929208         0.077817         0.416226
