19
Iteration:  3917
 C         2.512466        -1.739560        -3.932327
 C         2.448020        -0.461856        -3.129722
 C         2.211071         0.705917        -3.995633
 C         1.127065         0.411749        -2.981444
 O         1.001758         1.014132        -1.599219
 C         2.333309         0.935631        -1.012851
 C         3.277372        -0.124891        -1.802031
 C         2.004077         0.339691         0.399458
 O         2.778682         0.293545         1.399742
 H         3.361979        -1.911448        -4.590890
 H         2.542947        -2.643193        -3.230203
 H         1.643541        -1.831150        -4.664555
 H         2.974490         1.518163        -3.845735
 H         1.920971         0.525718        -5.029575
 H         0.204348         0.128639        -3.449461
 H         2.781802         1.959189        -1.079249
 H         4.116466         0.521028        -2.029649
 H         3.580174        -1.032402        -1.182253
 H         1.048743        -0.214758         0.420217
