19
Iteration:  4457charge 0 multiplicity 1
 C         2.606494        -1.786978        -3.918519
 C         2.393951        -0.377493        -3.138797
 C         2.136683         0.972315        -3.844828
 C         1.153993         0.363269        -2.985547
 O         1.132513         0.993803        -1.655686
 C         2.362207         0.715585        -1.072070
 C         3.082375        -0.456856        -1.795563
 C         1.963164         0.437672         0.405521
 O         2.820725         0.496045         1.290429
 H         3.586712        -1.690935        -4.396441
 H         2.650536        -2.674815        -3.251677
 H         1.912415        -1.940509        -4.727991
 H         2.869520         1.661812        -3.367995
 H         2.052550         1.064799        -4.920586
 H         0.243034        -0.033030        -3.236386
 H         2.923968         1.656727        -0.981450
 H         4.224528        -0.400608        -1.712363
 H         2.600268        -1.403298        -1.449119
 H         0.925180         0.261276         0.745952
