19
Iteration:   815
 C         2.532361        -1.731444        -3.964959
 C         2.447623        -0.443255        -3.193942
 C         2.489112         0.998091        -3.805422
 C         1.188405         0.498396        -3.123685
 O         0.906965         0.876576        -1.697717
 C         2.178386         0.728668        -0.984930
 C         2.943568        -0.448023        -1.719962
 C         2.124812         0.185877         0.476017
 O         2.851794         0.698693         1.356594
 H         2.467757        -2.574592        -3.179662
 H         1.675547        -1.521741        -4.697129
 H         3.319061        -1.998933        -4.662630
 H         3.149186         1.788803        -3.419969
 H         2.664792         0.943078        -4.935199
 H         0.312022         0.133467        -3.744324
 H         2.880220         1.621229        -0.932428
 H         4.017701        -0.283600        -1.787145
 H         2.753122        -1.411483        -1.299147
 H         1.388805        -0.606950         0.584227
