19
Iteration:  1082
 C         2.634366        -1.628909        -3.968528
 C         2.392971        -0.492830        -3.114416
 C         2.162526         0.738388        -3.916713
 C         1.146819         0.359765        -2.942748
 O         1.037010         1.016541        -1.719411
 C         2.268183         0.909263        -1.008375
 C         3.041117        -0.314977        -1.719385
 C         2.035649         0.455929         0.436326
 O         2.900738         0.297056         1.323956
 H         3.655309        -1.313487        -4.602620
 H         2.843520        -2.619509        -3.517683
 H         1.858409        -1.867084        -4.676962
 H         2.735273         1.728649        -3.900746
 H         2.166673         0.582029        -4.999357
 H         0.205700        -0.096451        -3.280707
 H         3.004158         1.791524        -1.033557
 H         4.040603         0.112152        -1.876592
 H         3.016080        -1.237096        -1.088364
 H         0.914291         0.322320         0.776068
