19
Iteration:  3965charge 0 multiplicity 1
 C         2.615222        -1.776756        -3.681038
 C         2.468812        -0.322586        -3.127828
 C         2.119158         0.958644        -3.937985
 C         1.126111         0.400397        -2.966816
 O         1.012035         1.037635        -1.784207
 C         2.337213         0.720370        -0.968213
 C         3.124296        -0.278153        -1.788669
 C         2.042485         0.330338         0.374223
 O         2.888844         0.316730         1.200155
 H         3.644403        -2.099935        -3.876407
 H         2.174662        -2.527758        -3.026436
 H         2.249947        -1.797776        -4.723286
 H         2.324562         1.921407        -3.576235
 H         1.803998         0.799543        -5.022940
 H         0.254839        -0.225305        -3.332165
 H         2.815564         1.730890        -0.822542
 H         4.183984        -0.047226        -1.552221
 H         2.806485        -1.230800        -1.393634
 H         0.959522         0.165892         0.480375
