19
Iteration:  2489charge 0 multiplicity 1
 C         2.812758        -1.690714        -3.847412
 C         2.294392        -0.483670        -3.183613
 C         2.155740         0.883313        -3.904814
 C         1.103386         0.360853        -3.022638
 O         1.036634         0.810020        -1.655054
 C         2.285047         0.811711        -1.108668
 C         3.021033        -0.316534        -1.781001
 C         2.085257         0.765575         0.474341
 O         2.839218         0.176337         1.322892
 H         3.680152        -1.345479        -4.267405
 H         2.817261        -2.567393        -3.118506
 H         2.138329        -1.974573        -4.719128
 H         2.753899         1.781053        -3.811117
 H         1.808642         0.857145        -4.976843
 H         0.084875         0.318959        -3.436041
 H         2.751271         1.806389        -1.009675
 H         4.147845        -0.192469        -1.864253
 H         2.968156        -1.173581        -1.115406
 H         1.366655         1.466039         0.781007
