19
Iteration:  2647
 C         2.497833        -1.759702        -3.923432
 C         2.446966        -0.356035        -3.033350
 C         2.124542         0.761910        -3.891904
 C         1.164718         0.198457        -2.942588
 O         1.097519         1.095320        -1.761647
 C         2.350435         0.949180        -1.033153
 C         3.188505        -0.079431        -1.747505
 C         2.081026         0.237203         0.349324
 O         2.749784         0.349839         1.346760
 H         3.307191        -1.895844        -4.536299
 H         2.408101        -2.632595        -3.365532
 H         1.783431        -1.741400        -4.714135
 H         2.531288         1.688671        -3.580704
 H         2.248288         0.429632        -5.020143
 H         0.216773        -0.321401        -3.176512
 H         2.891376         1.869067        -0.905693
 H         4.169128         0.251462        -1.743495
 H         3.216998        -1.097662        -1.397879
 H         1.048832        -0.340917         0.414477
