19
Iteration:   336
 C         2.547369        -1.717606        -3.924544
 C         2.398363        -0.429103        -3.253369
 C         2.188349         0.938484        -3.938137
 C         1.181811         0.403854        -2.922851
 O         1.222399         1.052419        -1.630668
 C         2.453656         0.612165        -0.977360
 C         3.118820        -0.403494        -1.971935
 C         2.129577         0.090763         0.448561
 O         2.449990         0.795468         1.444930
 H         2.405675        -2.549741        -3.294456
 H         1.804562        -1.926405        -4.779208
 H         3.673837        -1.695646        -4.326055
 H         2.784677         1.768223        -3.509688
 H         1.975739         0.846123        -4.983601
 H         0.146111        -0.044832        -3.172212
 H         3.051538         1.509867        -0.827905
 H         4.184668        -0.416891        -2.128796
 H         2.957603        -1.365265        -1.491707
 H         1.660175        -0.869165         0.628067
