19
Iteration:  3394charge 0 multiplicity 1
 C         2.651650        -1.677701        -3.573498
 C         2.478383        -0.326423        -2.989048
 C         2.096637         0.792391        -3.963572
 C         1.064672         0.157854        -2.921401
 O         1.039981         1.023498        -1.814810
 C         2.241877         1.025182        -1.042710
 C         3.257161         0.047327        -1.668430
 C         1.983171         0.444630         0.407506
 O         2.883502        -0.084197         0.957516
 H         3.432413        -1.775821        -4.335997
 H         2.628658        -2.464499        -2.821418
 H         1.839252        -1.959897        -4.346074
 H         2.327106         1.822674        -3.773801
 H         1.970129         0.491151        -5.123703
 H         0.180413        -0.421346        -3.169169
 H         2.513867         2.139818        -1.046961
 H         4.242202         0.480878        -1.758954
 H         3.472275        -0.931763        -1.223336
 H         0.964782         0.760289         0.978085
