19
Iteration:  1630charge 0 multiplicity 1
 C         2.637869        -1.730280        -3.828643
 C         2.311589        -0.451888        -3.118248
 C         2.023303         0.787840        -3.950412
 C         1.026359         0.368012        -2.862034
 O         1.224626         1.059677        -1.646320
 C         2.488797         0.809550        -1.044638
 C         3.309934        -0.117268        -1.972771
 C         2.147992         0.128671         0.317466
 O         2.488461         0.482572         1.426197
 H         3.497651        -1.504556        -4.476293
 H         2.849781        -2.503737        -3.188382
 H         1.850161        -2.035980        -4.526849
 H         2.638526         1.638897        -3.839854
 H         1.753407         0.691180        -5.084364
 H         0.048899        -0.054241        -2.979550
 H         2.891489         1.809556        -0.751658
 H         4.327641         0.227496        -2.252851
 H         3.550771        -1.058843        -1.482425
 H         1.449445        -0.671742         0.284943
