19
Iteration:  4035charge 0 multiplicity 1
 C         2.517006        -1.761139        -3.907196
 C         2.446504        -0.375858        -3.100299
 C         2.271726         0.988603        -3.806914
 C         1.183425         0.360977        -3.062866
 O         0.970751         0.797258        -1.675776
 C         2.243774         0.691295        -0.980823
 C         3.182375        -0.292044        -1.778443
 C         1.925180         0.584607         0.459273
 O         2.956311         0.373340         1.179313
 H         3.504517        -2.223257        -4.195170
 H         1.989585        -2.423800        -3.242660
 H         2.091400        -1.595624        -4.868332
 H         2.657488         1.915531        -3.195475
 H         2.210065         1.080337        -4.858629
 H         0.273083        -0.122008        -3.406509
 H         2.787364         1.668176        -0.996688
 H         4.240337        -0.063786        -1.921181
 H         2.918776        -1.297999        -1.459328
 H         0.884099         0.711877         0.872673
