19
Iteration:  4777charge 0 multiplicity 1
 C         2.493777        -1.755922        -3.880619
 C         2.389899        -0.413198        -3.143968
 C         2.198340         0.810936        -4.013697
 C         1.159077         0.430933        -2.928072
 O         1.183578         1.055186        -1.654369
 C         2.441794         0.679736        -0.942309
 C         3.189772        -0.291898        -1.929878
 C         1.910339         0.218539         0.431761
 O         2.686775         0.581477         1.382470
 H         3.506630        -1.782155        -4.455012
 H         2.231533        -2.602871        -3.229328
 H         1.795444        -1.538385        -4.754328
 H         2.799802         1.660825        -3.750830
 H         2.105903         0.560105        -5.018846
 H         0.256495         0.064360        -3.293209
 H         2.992866         1.589422        -0.783361
 H         4.195995         0.140132        -2.157467
 H         3.347800        -1.214898        -1.314374
 H         1.069398        -0.460737         0.655795
