19
Iteration:  3885
 C         2.451450        -1.736991        -3.842568
 C         2.460663        -0.410682        -3.166715
 C         2.161771         0.826211        -3.950007
 C         1.165821         0.301429        -3.009324
 O         1.102217         0.990897        -1.677949
 C         2.399607         0.809320        -1.047063
 C         3.253466        -0.086802        -1.817620
 C         1.981312         0.231170         0.394693
 O         2.735663         0.403705         1.393499
 H         3.278288        -1.900092        -4.487379
 H         2.357931        -2.537936        -3.033439
 H         1.464746        -1.871957        -4.376504
 H         2.716960         1.675462        -3.525392
 H         2.004770         0.959786        -5.005378
 H         0.264343        -0.119623        -3.411156
 H         2.859996         1.825963        -0.894558
 H         4.172090         0.455910        -1.926500
 H         3.583022        -1.000104        -1.245394
 H         1.029727        -0.262293         0.383144
