19
Iteration:  3684charge 0 multiplicity 1
 C         2.616293        -1.531851        -4.148799
 C         2.440845        -0.440745        -3.123299
 C         2.291171         0.998974        -3.731635
 C         1.146160         0.306415        -2.959343
 O         1.008206         0.769734        -1.673745
 C         2.238291         0.626192        -1.014780
 C         3.005419        -0.570237        -1.715438
 C         2.118225         0.334450         0.453679
 O         2.827503         0.841068         1.261209
 H         3.662187        -1.783683        -4.524907
 H         2.280240        -2.398278        -3.534079
 H         1.895893        -1.421090        -4.946340
 H         2.589064         1.990553        -3.319695
 H         2.134620         0.961288        -4.752762
 H         0.165438        -0.130223        -3.265533
 H         2.811037         1.574748        -1.151471
 H         4.126562        -0.390163        -1.703310
 H         2.893436        -1.597061        -1.291538
 H         1.418593        -0.504936         0.629048
