19
Iteration:  2796
 C         2.545447        -1.702256        -3.928487
 C         2.388696        -0.350435        -3.329803
 C         2.202640         1.056790        -3.975304
 C         1.166030         0.304481        -3.004930
 O         1.070224         0.766823        -1.553027
 C         2.438612         0.632946        -0.986246
 C         3.156124        -0.432769        -2.001421
 C         2.145751         0.264879         0.495255
 O         2.634136         0.787019         1.539477
 H         3.620844        -1.774109        -4.047187
 H         2.014216        -2.475021        -3.387010
 H         1.943260        -1.809217        -4.836143
 H         2.768121         1.917631        -3.746841
 H         1.740989         1.100121        -4.974110
 H         0.193877        -0.016794        -3.380334
 H         3.042730         1.555903        -1.086483
 H         4.243506        -0.145220        -1.871173
 H         3.026000        -1.424788        -1.491400
 H         1.241430        -0.324245         0.481467
