19
Iteration:   450
 C         2.769389        -1.751523        -3.716422
 C         2.463885        -0.406271        -3.071515
 C         2.401547         0.844622        -3.915007
 C         1.164604         0.475849        -3.102817
 O         0.849304         0.939858        -1.759376
 C         2.096122         0.892243        -0.976306
 C         2.861212        -0.345753        -1.668014
 C         2.036293         0.594763         0.509520
 O         3.034049         0.140397         1.046289
 H         2.476799        -2.662916        -3.183990
 H         2.192164        -1.790256        -4.598188
 H         3.803111        -1.686231        -4.045028
 H         2.842032         1.816656        -3.587092
 H         2.302896         0.810793        -4.981552
 H         0.263491         0.299660        -3.684234
 H         2.601700         1.844390        -1.070495
 H         3.970633        -0.336066        -1.518235
 H         2.502786        -1.242418        -1.108980
 H         1.020118         0.749041         1.124414
