19
Iteration:  1123
 C         2.620587        -1.687234        -3.914380
 C         2.479771        -0.337347        -3.142562
 C         2.064391         0.970030        -3.900339
 C         1.144898         0.276232        -2.978030
 O         1.103764         0.924381        -1.648451
 C         2.335267         0.695354        -1.047527
 C         3.084032        -0.414146        -1.839662
 C         2.019501         0.514629         0.401007
 O         2.834046         0.440572         1.364459
 H         3.671570        -2.085096        -3.906002
 H         1.871487        -2.382782        -3.472187
 H         2.511625        -1.656826        -4.976102
 H         2.586936         1.849136        -3.545218
 H         1.898044         0.949056        -4.987126
 H         0.112890        -0.273435        -3.070821
 H         2.869439         1.606622        -1.210084
 H         4.123797        -0.067338        -1.767204
 H         3.024396        -1.526058        -1.373655
 H         0.972648         0.283143         0.574665
