19
Iteration:  2696charge 0 multiplicity 1
 C         2.582457        -1.772919        -3.808608
 C         2.403653        -0.298157        -3.241215
 C         2.112164         0.875382        -4.053178
 C         1.129547         0.376770        -2.942498
 O         1.179457         0.929438        -1.592088
 C         2.425102         0.719144        -0.988598
 C         3.209976        -0.232017        -2.021442
 C         2.038069         0.236121         0.426752
 O         2.619380         0.543431         1.479238
 H         3.514536        -1.984255        -4.505048
 H         2.700605        -2.478106        -2.941366
 H         1.777783        -2.107398        -4.495320
 H         2.680238         1.773400        -3.829482
 H         1.623132         0.834634        -4.974489
 H         0.091681         0.148596        -3.182524
 H         3.097228         1.603720        -0.755222
 H         4.280326         0.008302        -2.402313
 H         3.317560        -1.173192        -1.405244
 H         0.948262        -0.293415         0.510821
