19
Iteration:  2637charge 0 multiplicity 1
 C         2.489816        -1.758376        -3.867244
 C         2.516884        -0.379827        -3.044382
 C         2.164863         0.798202        -3.971496
 C         1.084990         0.250824        -2.934298
 O         1.093081         1.046778        -1.758211
 C         2.299140         0.923223        -0.984482
 C         3.175526        -0.083796        -1.709003
 C         2.089542         0.284377         0.309569
 O         2.789522         0.317055         1.306240
 H         3.511781        -1.817826        -4.193414
 H         2.276167        -2.594585        -3.295658
 H         1.754836        -1.632916        -4.611284
 H         2.595922         1.753312        -3.776109
 H         2.141750         0.528806        -5.111885
 H         0.180551        -0.335654        -3.180116
 H         2.800724         1.881543        -0.871322
 H         4.194012         0.163271        -1.787629
 H         3.047784        -0.970951        -1.045669
 H         1.153929        -0.464637         0.182328
