19
Iteration:  2349
 C         2.653573        -1.783020        -3.708102
 C         2.463817        -0.367251        -3.103508
 C         2.165400         0.869585        -4.006253
 C         1.158131         0.337884        -2.996651
 O         0.980632         1.020611        -1.741471
 C         2.217922         0.837171        -0.979550
 C         3.160739        -0.193963        -1.772217
 C         2.013642         0.417486         0.431356
 O         2.883567         0.216809         1.199454
 H         3.591420        -1.831622        -4.159145
 H         2.471573        -2.497995        -2.904309
 H         1.952261        -2.028786        -4.544568
 H         2.466399         1.903307        -3.848459
 H         2.102235         0.643092        -5.161681
 H         0.162419        -0.065524        -3.324549
 H         2.655311         1.863536        -0.920483
 H         4.217869         0.144322        -1.757416
 H         3.221291        -1.005932        -1.143571
 H         0.960309         0.400365         0.711413
