19
Iteration:  3149charge 0 multiplicity 1
 C         2.733269        -1.777693        -3.647719
 C         2.490362        -0.407795        -3.044613
 C         2.009783         0.789269        -3.839308
 C         1.073964         0.232355        -2.862063
 O         0.965356         1.096208        -1.721060
 C         2.227284         0.934056        -1.043346
 C         3.348565         0.085143        -1.845384
 C         2.054713         0.493668         0.342824
 O         2.823019        -0.080528         1.009092
 H         3.672462        -2.272346        -3.472927
 H         2.050087        -2.561018        -3.245109
 H         2.397680        -1.672601        -4.689252
 H         2.405385         1.819531        -3.718634
 H         1.708194         0.557098        -4.834882
 H         0.196126        -0.327583        -3.146970
 H         2.682938         1.883719        -0.826465
 H         4.011924         0.822854        -2.176176
 H         3.717102        -0.721156        -1.194725
 H         0.914939         0.762096         0.622655
