19
Iteration:  1364
 C         2.568236        -1.810936        -3.739728
 C         2.475632        -0.346097        -3.152101
 C         2.287961         0.925587        -3.827002
 C         1.152582         0.396844        -3.053722
 O         0.922414         0.907967        -1.728553
 C         2.131609         0.770782        -1.003796
 C         3.086330        -0.163472        -1.764309
 C         1.983176         0.339565         0.489540
 O         3.050419         0.329989         1.091610
 H         3.598832        -2.194591        -3.546485
 H         1.918008        -2.450489        -3.120762
 H         2.244843        -1.877283        -4.730701
 H         2.922761         1.747864        -3.564183
 H         2.280469         0.999169        -4.976396
 H         0.268800         0.157025        -3.533242
 H         2.514013         1.812733        -0.842075
 H         4.103213         0.286516        -1.766834
 H         3.114754        -1.100427        -1.318527
 H         0.870988         0.202693         0.854552
