19
Iteration:  2515charge 0 multiplicity 1
 C         2.661041        -1.733342        -3.901687
 C         2.491760        -0.419027        -3.154151
 C         2.149166         0.828164        -3.843863
 C         1.113230         0.242042        -2.985667
 O         0.955133         0.998052        -1.685750
 C         2.277871         0.842027        -1.048556
 C         3.140148        -0.297088        -1.688832
 C         2.050880         0.671989         0.420812
 O         2.855659         0.205173         1.195495
 H         3.731551        -1.635098        -4.359427
 H         2.488286        -2.595598        -3.271064
 H         1.813243        -1.841351        -4.601940
 H         2.522040         1.897269        -3.412115
 H         2.133986         0.825097        -4.943828
 H         0.222653        -0.262909        -3.347607
 H         2.809740         1.802986        -0.955482
 H         4.145297         0.062014        -1.732084
 H         3.211115        -1.196673        -1.088471
 H         0.964706         0.810752         0.636205
