19
Iteration:  3234charge 0 multiplicity 1
 C         2.842130        -1.809728        -3.508481
 C         2.371180        -0.418893        -3.120161
 C         2.061581         0.802721        -3.917820
 C         1.038501         0.268020        -2.919336
 O         1.031224         1.046981        -1.697779
 C         2.332083         1.089640        -1.064034
 C         3.164785         0.099474        -1.931686
 C         1.996911         0.533859         0.386378
 O         2.793303        -0.209104         1.051224
 H         3.507108        -1.730918        -4.440675
 H         3.095573        -2.382582        -2.621227
 H         1.905584        -2.357938        -3.843798
 H         2.514608         1.725377        -3.536513
 H         1.920500         0.756368        -5.017327
 H         0.083835        -0.233695        -3.031748
 H         2.653941         2.216651        -0.993608
 H         4.271971         0.537027        -2.221713
 H         3.682533        -0.803204        -1.386675
 H         1.105599         0.810883         0.987475
