19
Iteration:  4087
 C         2.610936        -1.684196        -4.103179
 C         2.378462        -0.437003        -3.169806
 C         2.258202         0.918170        -3.851173
 C         1.162096         0.335483        -3.001286
 O         1.000488         0.836066        -1.664680
 C         2.249489         0.766610        -0.984099
 C         2.986435        -0.408523        -1.676304
 C         2.028937         0.513811         0.485681
 O         2.946759         0.475987         1.293330
 H         3.696501        -1.539468        -4.520566
 H         2.728454        -2.600494        -3.534266
 H         1.942616        -1.812125        -4.952137
 H         2.967755         1.641832        -3.291884
 H         2.189810         0.829429        -4.898868
 H         0.173881         0.293998        -3.375024
 H         2.808776         1.774510        -1.017699
 H         4.111519        -0.237356        -1.725417
 H         2.760229        -1.400279        -1.239591
 H         0.993969         0.742977         0.762624
