19
Iteration:   423charge 0 multiplicity 1
 C         2.616563        -1.773029        -3.726266
 C         2.454097        -0.378587        -3.124719
 C         2.383191         0.937832        -3.905903
 C         1.200782         0.435312        -3.010998
 O         0.914810         0.910431        -1.774284
 C         2.155344         0.743556        -0.985418
 C         3.028858        -0.325839        -1.731661
 C         1.980368         0.517369         0.459480
 O         2.943469         0.282790         1.150592
 H         2.207726        -2.535465        -3.092185
 H         2.018821        -1.876777        -4.703571
 H         3.699055        -1.889710        -3.998145
 H         2.977572         1.757046        -3.527379
 H         2.201042         1.080775        -4.984484
 H         0.328334         0.194066        -3.643128
 H         2.657657         1.758049        -1.028888
 H         4.047193         0.000902        -1.716446
 H         2.964348        -1.237479        -1.202438
 H         0.960375         0.513531         0.836242
