19
Iteration:  2770
 C         2.446672        -1.768446        -3.977917
 C         2.426599        -0.453919        -3.183857
 C         2.184805         0.942630        -3.807784
 C         1.148835         0.374214        -2.957120
 O         1.086151         0.786901        -1.608663
 C         2.423063         0.730238        -0.980892
 C         3.270292        -0.266046        -1.954780
 C         2.160410         0.235140         0.368301
 O         2.577948         0.731710         1.401408
 H         3.517402        -2.114706        -4.070207
 H         1.765895        -2.503195        -3.624217
 H         2.031965        -1.544598        -4.973187
 H         2.597703         1.909620        -3.433341
 H         1.999854         0.942837        -4.872054
 H         0.110869         0.255046        -3.303253
 H         2.963289         1.720165        -0.922009
 H         4.265699         0.190913        -1.887039
 H         3.386278        -1.139367        -1.309698
 H         1.628029        -0.793627         0.307798
