19
Iteration:  3009charge 0 multiplicity 1
 C         2.730096        -1.743773        -3.759739
 C         2.483839        -0.310487        -3.226824
 C         2.063204         0.948450        -3.989316
 C         1.068516         0.356637        -3.006396
 O         0.972108         0.870988        -1.699798
 C         2.303773         0.749503        -0.981941
 C         3.205525        -0.227459        -1.842447
 C         1.990423         0.469043         0.488900
 O         2.894868         0.254991         1.281895
 H         3.722988        -1.914012        -4.129455
 H         2.574093        -2.548453        -2.939677
 H         1.977465        -1.985843        -4.549916
 H         2.397953         2.015808        -3.634881
 H         1.795925         0.918251        -5.031353
 H         0.131341        -0.043842        -3.350876
 H         2.680015         1.808701        -1.064577
 H         4.217059         0.199941        -1.814882
 H         3.140934        -1.139000        -1.171566
 H         0.974414         0.504318         0.843012
