19
Iteration:   924charge 0 multiplicity 1
 C         2.729510        -1.708562        -3.957105
 C         2.391845        -0.403852        -3.174049
 C         2.099013         0.925178        -3.971856
 C         1.192769         0.330118        -2.904298
 O         1.076318         1.036835        -1.687951
 C         2.423086         0.814161        -1.026549
 C         3.015061        -0.425703        -1.784060
 C         2.051817         0.460303         0.441479
 O         2.727137         0.359184         1.387346
 H         1.795308        -2.132956        -4.380599
 H         3.183018        -1.482817        -4.955004
 H         3.242722        -2.448371        -3.375583
 H         2.763545         1.788822        -3.852338
 H         1.925760         0.445182        -4.890820
 H         0.218138         0.081165        -3.092173
 H         3.060187         1.711705        -1.176307
 H         4.140499        -0.419858        -1.773704
 H         2.673126        -1.312997        -1.108597
 H         0.930339         0.281783         0.598230
