19
Iteration:  2580charge 0 multiplicity 1
 C         2.544004        -1.856458        -3.614991
 C         2.428640        -0.419771        -3.178490
 C         2.233470         0.976962        -3.897873
 C         1.145917         0.431923        -3.087608
 O         0.972678         0.898038        -1.749136
 C         2.238124         0.783822        -0.970660
 C         3.150809        -0.098583        -1.956868
 C         2.005878         0.368232         0.478989
 O         2.914059         0.279424         1.291867
 H         3.589899        -2.002121        -3.678128
 H         2.158811        -2.528834        -2.867277
 H         2.279885        -2.111705        -4.646988
 H         3.046943         1.771416        -3.816547
 H         2.050946         1.094931        -5.023038
 H         0.175469         0.170316        -3.555844
 H         2.691851         1.779396        -0.927776
 H         4.080681         0.367709        -2.146884
 H         3.458361        -0.933239        -1.372554
 H         0.939815         0.055532         0.740172
