19
Iteration:  1596
 C         2.384088        -1.692243        -3.829266
 C         2.556216        -0.332816        -3.132484
 C         1.966739         0.842723        -3.916606
 C         1.199936         0.179600        -2.830614
 O         1.217974         1.001173        -1.670537
 C         2.454416         0.800794        -1.008468
 C         3.475769        -0.049479        -1.946069
 C         2.101752         0.056410         0.245694
 O         2.438812         0.544139         1.368291
 H         3.259338        -2.071576        -4.425377
 H         2.203562        -2.474510        -3.186290
 H         1.514424        -1.647698        -4.444376
 H         2.434968         1.776526        -3.667323
 H         1.601120         0.636166        -5.018030
 H         0.279348        -0.346354        -2.711503
 H         2.831069         1.799578        -0.736270
 H         4.467822         0.489483        -2.078295
 H         3.447047        -0.986705        -1.423976
 H         1.412062        -0.808887         0.203610
