19
Iteration:  4435
 C         2.549227        -1.679663        -3.912464
 C         2.424847        -0.396402        -3.129941
 C         2.196095         0.894118        -3.858000
 C         1.150449         0.294633        -2.990190
 O         1.074151         0.998270        -1.705782
 C         2.409180         0.819324        -1.042650
 C         3.074624        -0.439395        -1.729923
 C         2.053199         0.349202         0.304668
 O         2.790145         0.500228         1.355517
 H         3.459258        -1.887924        -4.468623
 H         2.376330        -2.566331        -3.273102
 H         1.712161        -1.570542        -4.590282
 H         2.643975         1.866819        -3.482296
 H         2.040771         0.666716        -4.913145
 H         0.168355         0.178601        -3.296328
 H         3.059104         1.719332        -0.981531
 H         4.155829        -0.114804        -1.660065
 H         2.767778        -1.360981        -1.175342
 H         1.125253        -0.260581         0.408353
