19
Iteration:  2081charge 0 multiplicity 1
 C         2.568930        -1.826586        -3.727788
 C         2.418238        -0.456104        -3.155062
 C         2.029336         0.848029        -3.943781
 C         1.101425         0.305411        -2.871344
 O         1.194893         1.087046        -1.693763
 C         2.429193         0.966103        -1.029380
 C         3.240385        -0.070888        -1.960147
 C         2.247858         0.169480         0.288041
 O         2.477172         0.360606         1.398054
 H         3.567204        -2.028502        -4.151727
 H         2.551118        -2.660640        -3.007669
 H         1.693292        -1.962421        -4.368339
 H         2.529257         1.731628        -3.569360
 H         1.825857         0.933071        -4.970040
 H         0.085503        -0.160304        -3.021827
 H         3.032466         1.899065        -1.093838
 H         4.151956         0.426509        -2.107065
 H         3.425225        -1.076139        -1.450377
 H         1.580279        -0.740540        -0.070038
