19
Iteration:  1398charge 0 multiplicity 1
 C         2.576338        -1.643023        -3.694801
 C         2.487960        -0.329935        -3.047523
 C         2.195966         0.806046        -3.910877
 C         1.097648         0.334984        -2.995987
 O         0.965745         0.950737        -1.776856
 C         2.199042         1.020405        -1.074100
 C         3.078658        -0.163896        -1.731919
 C         2.109794         0.313194         0.368466
 O         2.942738         0.192246         1.187561
 H         3.692042        -1.864969        -4.007055
 H         2.314026        -2.392128        -2.969694
 H         2.119277        -1.844077        -4.602842
 H         2.909882         1.650572        -3.630765
 H         2.022463         0.343681        -4.895735
 H         0.158052        -0.041791        -3.443558
 H         2.763236         2.007541        -1.101871
 H         4.134131        -0.044903        -1.450588
 H         2.858043        -0.973705        -1.132804
 H         1.173429        -0.436541         0.358434
