19
Iteration:   772charge 0 multiplicity 1
 C         2.627887        -1.602670        -4.110369
 C         2.412267        -0.458843        -3.086807
 C         2.279769         0.846416        -3.836955
 C         1.173058         0.425597        -2.998062
 O         1.116112         0.932182        -1.619810
 C         2.409567         0.608199        -1.012109
 C         2.987632        -0.567094        -1.753509
 C         2.018361         0.468301         0.412908
 O         2.699570         0.650032         1.356200
 H         2.851605        -2.603577        -3.541092
 H         1.673284        -1.634536        -4.824707
 H         3.315414        -1.385735        -4.897277
 H         2.706356         1.754144        -3.410406
 H         2.320860         0.996930        -4.956803
 H         0.116242         0.109376        -3.276284
 H         3.170671         1.471069        -0.992261
 H         4.038514        -0.459531        -1.741506
 H         2.603222        -1.440757        -1.329061
 H         0.877522        -0.013242         0.476124
