19
Iteration:  4441charge 0 multiplicity 1
 C         2.561602        -1.707563        -3.940339
 C         2.461845        -0.425174        -3.167780
 C         2.224108         0.948407        -3.845580
 C         1.124676         0.347090        -2.915873
 O         1.099239         0.997206        -1.702939
 C         2.385903         0.776184        -1.025516
 C         3.033257        -0.437771        -1.728540
 C         2.064840         0.389780         0.357292
 O         2.773358         0.495659         1.288636
 H         3.552758        -1.906131        -4.399966
 H         2.471545        -2.510567        -3.170241
 H         1.688505        -1.905398        -4.665032
 H         2.376821         1.940737        -3.475929
 H         2.060379         0.740435        -4.906224
 H         0.072932        -0.063657        -3.223482
 H         3.132757         1.580032        -1.096700
 H         4.074968        -0.216443        -1.693364
 H         2.919214        -1.371396        -1.128403
 H         1.043758        -0.113408         0.245200
