19
Iteration:  1253
 C         2.686576        -1.640852        -4.179931
 C         2.294539        -0.530217        -3.192729
 C         2.222814         0.981954        -3.859889
 C         1.119630         0.373298        -2.999405
 O         1.061013         0.831995        -1.612341
 C         2.346589         0.645946        -0.990526
 C         2.986268        -0.538506        -1.750227
 C         2.038327         0.500167         0.497622
 O         2.884103         0.680127         1.405826
 H         3.617194        -1.460706        -4.735942
 H         2.929224        -2.591498        -3.609613
 H         1.888430        -1.931464        -4.916067
 H         2.876291         1.811570        -3.403274
 H         2.120001         0.980422        -4.897171
 H         0.058207         0.102887        -3.362838
 H         2.827910         1.687311        -1.103170
 H         4.060601        -0.503244        -1.686700
 H         2.778176        -1.483387        -1.346055
 H         1.010750         0.438264         0.735886
