19
Iteration:  2978charge 0 multiplicity 1
 C         2.706714        -1.659138        -3.893527
 C         2.443771        -0.378102        -3.128489
 C         2.150491         0.900480        -3.923182
 C         1.050435         0.289533        -3.033995
 O         0.984455         0.846355        -1.710652
 C         2.264073         0.776339        -0.995008
 C         3.073768        -0.233533        -1.780716
 C         2.054231         0.449162         0.519768
 O         2.941595         0.352796         1.278860
 H         3.748769        -1.902594        -3.906270
 H         2.074819        -2.482591        -3.631260
 H         2.495861        -1.574255        -4.938020
 H         2.510769         1.932822        -3.605350
 H         2.083180         0.884351        -4.982375
 H         0.131015        -0.137061        -3.398564
 H         2.622311         1.794158        -1.030087
 H         4.164554         0.003297        -1.726892
 H         3.092870        -1.099656        -1.180999
 H         0.964495         0.393802         0.791661
