19
Iteration:  3155charge 0 multiplicity 1
 C         2.649958        -1.755590        -3.644396
 C         2.550843        -0.435908        -3.008716
 C         1.976487         0.774076        -3.870011
 C         1.130200         0.211875        -2.889512
 O         0.947533         1.089680        -1.734220
 C         2.269721         0.915788        -1.063062
 C         3.314069         0.143479        -1.810167
 C         2.013370         0.517679         0.330400
 O         2.846482        -0.111696         1.034248
 H         3.674998        -2.300662        -3.715063
 H         2.031823        -2.561868        -3.240991
 H         2.456500        -1.531457        -4.719327
 H         2.403192         1.764645        -3.610759
 H         1.746703         0.559283        -4.938467
 H         0.193612        -0.317891        -3.099642
 H         2.592003         2.022698        -0.847008
 H         4.229416         0.834119        -2.231864
 H         3.688687        -0.577489        -1.015137
 H         1.047102         0.730696         0.734292
