19
Iteration:  3622charge 0 multiplicity 1
 C         2.649429        -1.612395        -4.087767
 C         2.369086        -0.435907        -3.166424
 C         2.307934         0.916166        -3.773727
 C         1.093798         0.395900        -2.942660
 O         0.927808         0.690142        -1.626569
 C         2.232667         0.602042        -1.033115
 C         3.149692        -0.411994        -1.771418
 C         2.065101         0.486465         0.464656
 O         2.899640         0.666101         1.268216
 H         3.673359        -1.835041        -4.286769
 H         2.025176        -2.504943        -3.831585
 H         2.366722        -1.468003        -5.132703
 H         2.897723         1.801017        -3.277248
 H         2.172402         1.046213        -4.814363
 H         0.204739        -0.084380        -3.448661
 H         2.594914         1.657964        -0.976201
 H         4.155982         0.001187        -1.735403
 H         2.885594        -1.292344        -1.184407
 H         0.996912         0.433429         0.810831
