19
Iteration:  3953
 C         2.602063        -1.727038        -3.708253
 C         2.523011        -0.328860        -3.190515
 C         2.064422         0.936553        -3.915723
 C         1.078104         0.324947        -3.019177
 O         1.070900         1.066953        -1.752348
 C         2.330315         0.778380        -1.035316
 C         3.167854        -0.320685        -1.750848
 C         1.945106         0.343339         0.414618
 O         2.874772         0.308979         1.231461
 H         3.641209        -1.897806        -3.857939
 H         2.286548        -2.363252        -2.847412
 H         1.901414        -2.051258        -4.524871
 H         2.539955         1.846487        -3.559195
 H         2.007281         1.019775        -5.004860
 H         0.019147        -0.058590        -3.203956
 H         3.073154         1.632813        -0.987116
 H         4.217448        -0.033041        -1.911360
 H         3.292726        -1.300753        -1.277597
 H         0.986869        -0.142531         0.623716
