19
Iteration:  1408
 C         2.648727        -1.708366        -3.713784
 C         2.441912        -0.386358        -3.080180
 C         2.179020         0.807198        -3.923600
 C         1.098075         0.332860        -2.994193
 O         0.988464         1.021434        -1.705640
 C         2.283151         0.919963        -1.028975
 C         3.084222        -0.112363        -1.709094
 C         2.078146         0.294869         0.274026
 O         2.895939         0.224873         1.218662
 H         3.689667        -1.809430        -4.098732
 H         2.447824        -2.520597        -3.009290
 H         1.922764        -1.780799        -4.473794
 H         2.596970         1.865654        -3.873747
 H         2.046326         0.638500        -5.046961
 H         0.168304        -0.126177        -3.295996
 H         2.776411         1.907309        -0.991036
 H         4.165845         0.105130        -1.746597
 H         2.854531        -1.046691        -1.301312
 H         1.049717        -0.205639         0.398095
