19
Iteration:  4631
 C         2.566396        -1.678852        -3.952002
 C         2.464585        -0.441837        -3.098172
 C         2.197230         0.954328        -3.841052
 C         1.208246         0.313985        -2.887268
 O         1.148941         0.947595        -1.688128
 C         2.304206         0.791695        -1.036146
 C         3.031921        -0.446341        -1.762294
 C         1.996236         0.485984         0.360810
 O         2.773117         0.457220         1.223757
 H         3.553009        -1.785216        -4.510218
 H         2.308669        -2.567377        -3.218373
 H         1.731912        -1.699904        -4.671263
 H         2.742267         1.881094        -3.452558
 H         2.119160         0.689392        -4.924544
 H         0.130328         0.020302        -3.107018
 H         3.015862         1.647587        -1.191364
 H         4.187776        -0.372534        -1.675133
 H         2.863527        -1.431033        -1.217141
 H         0.997577         0.140819         0.649926
