19
Iteration:   228
 C         2.358310        -1.666385        -4.024667
 C         2.429255        -0.369978        -3.231483
 C         2.286742         1.029282        -3.812362
 C         1.192235         0.463039        -2.925427
 O         1.221385         0.634683        -1.476727
 C         2.570603         0.526934        -0.996763
 C         3.205792        -0.478501        -1.976723
 C         2.259701         0.172094         0.429355
 O         2.221708         1.032484         1.323254
 H         2.007616        -2.448862        -3.412295
 H         1.896649        -1.520928        -4.929635
 H         3.385393        -1.997932        -4.244877
 H         2.883687         1.913187        -3.555839
 H         2.183339         1.125166        -4.884136
 H         0.163423         0.092733        -3.064146
 H         3.057742         1.471283        -1.057820
 H         4.238428        -0.216414        -2.215267
 H         3.102377        -1.583336        -1.619646
 H         1.973203        -0.871823         0.567286
