19
Iteration:  3755charge 0 multiplicity 1
 C         2.479700        -1.653298        -3.953013
 C         2.489311        -0.304357        -3.237452
 C         2.199589         1.034439        -3.878399
 C         1.184411         0.382230        -2.991797
 O         1.114773         0.680442        -1.624105
 C         2.410896         0.622431        -1.036608
 C         3.113106        -0.408760        -1.899008
 C         2.079648         0.305652         0.486653
 O         2.669569         0.744834         1.418982
 H         3.459968        -2.029125        -4.156763
 H         2.203304        -2.247913        -3.063633
 H         1.754930        -1.805066        -4.828209
 H         2.568783         1.973100        -3.531423
 H         2.019742         0.877571        -5.034758
 H         0.293714        -0.002171        -3.403418
 H         2.862079         1.642081        -1.089902
 H         4.177077        -0.321529        -1.977610
 H         2.919660        -1.412357        -1.464700
 H         1.338521        -0.468786         0.614946
