19
Iteration:  4273charge 0 multiplicity 1
 C         2.490581        -1.730118        -3.955235
 C         2.432138        -0.425350        -3.261906
 C         2.122968         0.877865        -3.876789
 C         1.103942         0.389902        -2.886813
 O         1.244368         1.019015        -1.633599
 C         2.488390         0.681667        -1.001595
 C         3.191550        -0.354399        -1.858539
 C         2.027602         0.250554         0.427283
 O         2.610874         0.632728         1.336948
 H         3.493106        -1.708317        -4.532011
 H         2.658850        -2.545442        -3.268536
 H         1.733705        -1.861933        -4.702164
 H         2.661204         1.797874        -3.692494
 H         1.686486         0.751092        -4.982773
 H         0.071831        -0.027146        -3.182586
 H         3.041294         1.604798        -0.567958
 H         4.315408        -0.266481        -1.731401
 H         2.843955        -1.302877        -1.483536
 H         1.152045        -0.396169         0.516543
