19
Iteration:  4697charge 0 multiplicity 1
 C         2.412839        -1.819969        -3.912851
 C         2.405528        -0.422404        -3.137086
 C         2.304388         0.937736        -3.944600
 C         1.214020         0.427674        -2.931933
 O         1.075690         0.990909        -1.667482
 C         2.250540         0.697791        -0.951456
 C         3.252282        -0.230243        -1.871197
 C         2.033532         0.120231         0.415521
 O         2.746257         0.633741         1.317842
 H         3.480592        -2.102262        -4.016855
 H         1.854094        -2.570567        -3.201843
 H         1.740232        -1.724570        -4.752403
 H         3.027696         1.757376        -3.752127
 H         2.138750         0.641049        -5.071499
 H         0.286218         0.134236        -3.534696
 H         2.694058         1.732310        -0.700749
 H         4.362716         0.077722        -2.009102
 H         3.343886        -1.201225        -1.320849
 H         1.068012        -0.515207         0.621126
