19
Iteration:  1807charge 0 multiplicity 1
 C         2.738894        -1.546966        -4.080365
 C         2.435667        -0.489771        -3.042830
 C         2.282958         0.852336        -3.698824
 C         1.114038         0.222010        -2.976456
 O         0.954869         0.804965        -1.660123
 C         2.226446         0.828787        -1.080295
 C         2.879035        -0.385322        -1.614734
 C         2.007269         0.627142         0.374089
 O         3.003023         0.426646         1.145564
 H         3.808820        -1.517791        -4.179635
 H         2.587453        -2.525397        -3.725339
 H         2.249764        -1.320736        -5.087660
 H         2.739562         1.765037        -3.350127
 H         2.340701         0.903588        -4.852612
 H         0.170492        -0.111746        -3.392067
 H         2.744303         1.751963        -1.246667
 H         3.960250        -0.363193        -1.509579
 H         2.463644        -1.286211        -1.131416
 H         1.023349         0.436738         0.801667
