19
Iteration:   162
 C         2.546618        -1.584671        -4.119861
 C         2.426859        -0.418914        -3.186707
 C         2.202896         0.895953        -3.909808
 C         1.187372         0.440648        -3.020281
 O         1.145892         0.801438        -1.694373
 C         2.356598         0.561755        -0.975959
 C         3.080386        -0.550562        -1.758230
 C         2.194384         0.248806         0.543629
 O         2.560612         0.926708         1.476978
 H         2.347298        -2.721932        -3.751878
 H         1.890197        -1.342958        -4.912101
 H         3.528174        -1.590806        -4.679245
 H         2.843221         1.708791        -3.708683
 H         1.859401         0.929034        -4.943306
 H         0.273092         0.119970        -3.483466
 H         2.971676         1.437006        -0.947624
 H         4.111540        -0.222631        -1.729792
 H         2.912023        -1.591873        -1.320800
 H         1.638533        -0.734821         0.754253
