19
Iteration:  1499charge 0 multiplicity 1
 C         2.463176        -1.756461        -3.831238
 C         2.486385        -0.340502        -3.135589
 C         2.001840         0.857769        -3.985890
 C         1.192839         0.226172        -2.830087
 O         1.175845         1.063187        -1.630464
 C         2.483348         0.850300        -0.999564
 C         3.334159        -0.091915        -1.909718
 C         2.141072         0.134612         0.248599
 O         2.472013         0.444480         1.380493
 H         3.464611        -2.043713        -4.284638
 H         2.290402        -2.535108        -3.105357
 H         1.622749        -1.918945        -4.537777
 H         2.411416         1.818288        -3.718307
 H         1.764762         0.594075        -5.048019
 H         0.319122        -0.425661        -3.005399
 H         2.930717         1.886406        -0.834791
 H         4.227445         0.473648        -2.127205
 H         3.448855        -1.018375        -1.439363
 H         1.542536        -0.760565         0.089168
