19
Iteration:  1409
 C         2.651253        -1.719725        -3.715499
 C         2.436417        -0.384956        -3.079936
 C         2.175624         0.809442        -3.933402
 C         1.105105         0.334130        -2.990588
 O         0.990105         1.026927        -1.700576
 C         2.287325         0.912142        -1.027770
 C         3.084020        -0.115394        -1.709427
 C         2.076728         0.293028         0.275930
 O         2.891629         0.228967         1.218349
 H         3.723779        -1.815190        -4.119693
 H         2.466245        -2.524477        -3.024978
 H         1.915340        -1.771921        -4.458100
 H         2.574273         1.885084        -3.878865
 H         2.051401         0.676110        -5.019741
 H         0.142918        -0.139909        -3.288110
 H         2.774134         1.927034        -0.976571
 H         4.155840         0.104722        -1.771375
 H         2.899870        -1.044970        -1.304789
 H         1.018560        -0.193383         0.385741
