19
Iteration:  3701
 C         2.531545        -1.555631        -4.126081
 C         2.409386        -0.474676        -3.098608
 C         2.297037         0.881290        -3.728713
 C         1.131095         0.316862        -3.007223
 O         0.952204         0.820616        -1.620919
 C         2.307338         0.625894        -0.996032
 C         3.098266        -0.446600        -1.713960
 C         2.166785         0.257492         0.437124
 O         2.764978         0.839530         1.224515
 H         3.493816        -1.239717        -4.425220
 H         2.597141        -2.623674        -3.991243
 H         1.831527        -1.319126        -5.006678
 H         2.966577         1.568907        -3.301357
 H         2.451139         1.012258        -4.891596
 H         0.246924         0.124310        -3.556030
 H         2.761251         1.627383        -0.978431
 H         4.138961        -0.242535        -1.583009
 H         2.913767        -1.419928        -1.225112
 H         1.443964        -0.557165         0.769072
