19
Iteration:  2911
 C         2.640886        -1.692741        -3.915729
 C         2.457220        -0.355796        -3.157373
 C         2.246245         1.166816        -3.829118
 C         1.177112         0.427697        -3.102665
 O         0.903365         0.640525        -1.687961
 C         2.166313         0.571863        -1.054477
 C         3.028892        -0.471731        -1.740895
 C         2.050508         0.459402         0.527117
 O         3.020012         0.626556         1.277107
 H         3.658916        -1.963028        -3.979786
 H         2.012274        -2.492880        -3.563138
 H         2.258969        -1.563200        -4.912727
 H         2.805143         2.039174        -3.540303
 H         1.921669         1.142008        -4.922011
 H         0.278228        -0.069607        -3.517523
 H         2.701664         1.506220        -1.202503
 H         4.057969        -0.183249        -1.583017
 H         2.917156        -1.474354        -1.414670
 H         1.036751         0.260397         1.147898
