19
Iteration:  4383
 C         2.377609        -1.829013        -3.833279
 C         2.399184        -0.421718        -3.211220
 C         2.286258         0.915946        -3.879572
 C         1.220803         0.496796        -2.991985
 O         1.041254         0.925283        -1.704931
 C         2.294537         0.684571        -1.033567
 C         3.269437        -0.220005        -1.935846
 C         2.083723         0.156793         0.478999
 O         2.725159         0.611793         1.380234
 H         3.428519        -2.181570        -4.059640
 H         1.848932        -2.513133        -3.192323
 H         1.906761        -1.817861        -4.790641
 H         3.048409         1.713931        -3.510201
 H         2.001731         1.087205        -4.940931
 H         0.282310         0.186800        -3.303757
 H         2.791715         1.687753        -0.786715
 H         4.240826         0.299710        -1.992003
 H         3.343411        -1.099187        -1.372151
 H         1.288989        -0.609250         0.681735
