19
Iteration:  3096
 C         2.760929        -1.699229        -3.617710
 C         2.502308        -0.304733        -3.183177
 C         2.003796         0.791324        -4.054170
 C         1.087650         0.327077        -2.946569
 O         0.928890         1.029063        -1.694514
 C         2.258417         0.900173        -1.063866
 C         3.195201        -0.042670        -1.815413
 C         2.018083         0.481737         0.469079
 O         2.911457        -0.058201         1.188665
 H         3.797797        -1.692267        -3.932310
 H         2.472508        -2.401451        -2.780065
 H         2.145068        -2.064240        -4.443141
 H         2.395399         1.851580        -4.126325
 H         1.947938         0.349835        -5.040037
 H         0.218017        -0.239523        -3.230235
 H         2.742814         1.882509        -0.914895
 H         4.212401         0.232621        -1.846825
 H         3.309075        -0.925131        -1.185757
 H         1.020175         0.760744         0.789061
