19
Iteration:  3045
 C         2.602084        -1.690311        -3.852117
 C         2.497656        -0.412937        -3.062844
 C         2.237105         0.743101        -3.886826
 C         1.128921         0.264755        -2.823127
 O         0.855914         0.886254        -1.671140
 C         2.282146         0.986415        -1.069908
 C         3.270542        -0.013086        -1.822993
 C         2.001543         0.502578         0.356298
 O         2.853639         0.108099         1.214460
 H         3.349617        -1.515073        -4.639961
 H         2.647103        -2.600435        -3.279342
 H         1.675741        -1.801378        -4.439195
 H         2.615263         1.682990        -3.524850
 H         2.040594         0.794422        -4.980409
 H         0.199584        -0.172317        -3.214055
 H         2.607072         2.030551        -1.075026
 H         4.340158         0.376146        -2.087293
 H         3.580643        -0.905199        -1.309909
 H         0.974415         0.363888         0.459555
