19
Iteration:  3765
 C         2.427730        -1.637601        -3.883250
 C         2.521980        -0.311519        -3.267038
 C         2.164738         1.041267        -3.853661
 C         1.174555         0.336775        -2.970684
 O         1.133631         0.737414        -1.624089
 C         2.358296         0.620274        -1.033204
 C         3.209349        -0.404346        -1.853704
 C         2.051937         0.252124         0.399664
 O         2.681005         0.747190         1.400853
 H         3.455360        -1.812866        -4.147113
 H         1.921044        -2.489010        -3.290921
 H         1.966372        -1.753890        -4.937798
 H         2.737981         1.932153        -3.776874
 H         1.944647         0.828532        -5.038229
 H         0.224234        -0.040111        -3.192171
 H         2.971790         1.595883        -1.033202
 H         4.205354        -0.115442        -1.620458
 H         3.001163        -1.471220        -1.593382
 H         1.261861        -0.440428         0.413229
