19
Iteration:  3937charge 0 multiplicity 1
 C         2.579021        -1.768113        -3.778784
 C         2.359971        -0.387023        -3.090454
 C         2.153744         0.901507        -3.942727
 C         1.157704         0.335333        -2.949809
 O         1.108150         1.003324        -1.748109
 C         2.315163         0.830151        -0.998029
 C         3.165030        -0.175601        -1.867160
 C         2.006168         0.314838         0.360110
 O         2.836446         0.310005         1.333716
 H         3.589804        -1.860194        -4.310265
 H         2.446787        -2.619903        -3.068362
 H         1.799894        -1.860622        -4.546605
 H         2.628327         1.874355        -3.716810
 H         2.041073         0.702502        -5.044183
 H         0.229967        -0.056557        -3.273773
 H         2.746314         1.822994        -0.827384
 H         4.203782         0.182836        -1.882976
 H         3.102321        -1.131880        -1.291612
 H         0.885617         0.062299         0.455427
