19
Iteration:  2226
 C         2.503726        -1.804287        -3.743125
 C         2.457460        -0.395448        -3.084892
 C         2.066109         0.780257        -4.012244
 C         1.147428         0.233925        -2.904085
 O         1.139046         1.137520        -1.784420
 C         2.325492         0.944086        -0.957386
 C         3.295176         0.012009        -1.862386
 C         2.039980         0.146371         0.291082
 O         2.685519         0.291238         1.362373
 H         3.431267        -2.169757        -4.094590
 H         2.217564        -2.565218        -2.942048
 H         1.848590        -1.774896        -4.607516
 H         2.688980         1.712344        -3.645165
 H         2.198775         0.767503        -5.077522
 H         0.151539        -0.116033        -3.055457
 H         2.775295         1.941546        -0.763852
 H         4.097360         0.705148        -2.267624
 H         3.644007        -0.874007        -1.345573
 H         1.351248        -0.744158         0.487981
