19
Iteration:  1805charge 0 multiplicity 1
 C         2.745121        -1.560856        -4.074242
 C         2.440169        -0.490864        -3.059510
 C         2.281552         0.860653        -3.705449
 C         1.117271         0.221311        -2.956882
 O         0.958731         0.816713        -1.664464
 C         2.232366         0.837251        -1.071645
 C         2.872354        -0.394729        -1.622171
 C         2.000513         0.614611         0.370710
 O         3.000854         0.427748         1.136112
 H         3.893720        -1.496162        -4.204276
 H         2.547682        -2.569692        -3.724367
 H         2.206011        -1.307122        -5.073854
 H         2.673656         1.843476        -3.265456
 H         2.331865         0.858261        -4.805961
 H         0.147860        -0.147002        -3.404276
 H         2.750905         1.751804        -1.243732
 H         3.978204        -0.327244        -1.486808
 H         2.454068        -1.272500        -1.091702
 H         1.017456         0.442801         0.843231
