19
Iteration:  4096
 C         2.663852        -1.655778        -4.131561
 C         2.344062        -0.524883        -3.138113
 C         2.263956         0.910034        -3.794741
 C         1.126044         0.364168        -2.986477
 O         1.030099         0.907443        -1.706415
 C         2.207902         0.671066        -0.981341
 C         3.000366        -0.413241        -1.692103
 C         2.004946         0.578190         0.508312
 O         2.957823         0.483248         1.276942
 H         3.681408        -1.548230        -4.553707
 H         2.616282        -2.618200        -3.597105
 H         1.891903        -1.856271        -4.880106
 H         2.926633         1.748093        -3.451345
 H         2.041940         1.010456        -4.833963
 H         0.241597         0.143224        -3.487932
 H         2.951130         1.492458        -1.033863
 H         4.089023        -0.100512        -1.736074
 H         3.065069        -1.365037        -1.150609
 H         0.978715         0.430078         0.851869
