19
Iteration:  2344charge 0 multiplicity 1
 C         2.632136        -1.794338        -3.750664
 C         2.455204        -0.329095        -3.074688
 C         2.159682         0.812143        -3.979422
 C         1.169324         0.346070        -3.011875
 O         0.993251         1.014834        -1.749367
 C         2.259788         0.866602        -0.962642
 C         3.166700        -0.148990        -1.728551
 C         1.953708         0.409452         0.444487
 O         2.903838         0.218301         1.162934
 H         3.685114        -1.935999        -4.236483
 H         2.486352        -2.488686        -2.856359
 H         1.944481        -1.956792        -4.582266
 H         2.503982         1.859505        -3.906258
 H         1.982159         0.604108        -4.964608
 H         0.249888        -0.086536        -3.305069
 H         2.658055         1.881356        -0.933674
 H         4.213497         0.189691        -1.870122
 H         3.174768        -1.208705        -1.151839
 H         0.817816         0.211096         0.606111
