19
Iteration:  4292charge 0 multiplicity 1
 C         2.530680        -1.695436        -4.017827
 C         2.335942        -0.485139        -3.059526
 C         2.144199         0.856920        -3.960509
 C         1.168062         0.386265        -2.886727
 O         1.208666         1.097954        -1.658160
 C         2.417577         0.653602        -0.992123
 C         3.208237        -0.395863        -1.857153
 C         2.056957         0.208617         0.462176
 O         2.628889         0.645669         1.367404
 H         3.429271        -1.727225        -4.629509
 H         2.454742        -2.663914        -3.443281
 H         1.703087        -1.732205        -4.791898
 H         2.703265         1.730094        -3.714402
 H         2.003945         0.712346        -5.069310
 H         0.044345         0.166958        -3.178146
 H         2.909926         1.667160        -0.842603
 H         4.013420         0.234125        -2.275499
 H         3.469209        -1.314083        -1.324253
 H         1.154023        -0.565946         0.334088
