19
Iteration:  2284charge 0 multiplicity 1
 C         2.591302        -1.807066        -3.614391
 C         2.435061        -0.397491        -3.124741
 C         2.099668         0.864101        -4.009530
 C         1.151332         0.351836        -2.961649
 O         1.126111         0.996902        -1.730153
 C         2.282001         0.870559        -1.039408
 C         3.225560        -0.004312        -1.891226
 C         2.003421         0.283938         0.347571
 O         2.770175         0.221126         1.333161
 H         3.591203        -2.013691        -3.960512
 H         2.349997        -2.483150        -2.844859
 H         1.877358        -2.171046        -4.410393
 H         2.621112         1.789809        -3.618887
 H         1.899866         0.824459        -5.152143
 H         0.167254         0.041693        -3.374784
 H         2.685576         1.888771        -0.800743
 H         4.201977         0.388899        -2.236819
 H         3.547506        -0.938924        -1.573261
 H         0.884682        -0.014659         0.505656
