19
Iteration:  2094charge 0 multiplicity 1
 C         2.522948        -1.839392        -3.799425
 C         2.431498        -0.416556        -3.094300
 C         2.066022         0.814068        -3.883168
 C         1.128794         0.257232        -2.837869
 O         1.154519         1.101248        -1.642963
 C         2.467247         0.937267        -1.034770
 C         3.311769        -0.011681        -1.890426
 C         2.147437         0.131310         0.158228
 O         2.508968         0.405442         1.338146
 H         3.421668        -1.966661        -4.329451
 H         2.247277        -2.601053        -3.022673
 H         1.770989        -1.924446        -4.528237
 H         2.603082         1.676735        -3.709811
 H         1.786921         0.518393        -4.949094
 H         0.100742        -0.072605        -3.079835
 H         2.785814         1.899449        -0.686997
 H         4.239470         0.348206        -2.312057
 H         3.616724        -0.850301        -1.248360
 H         1.524841        -0.850074        -0.010465
