19
Iteration:  1768charge 0 multiplicity 1
 C         2.709529        -1.626723        -3.828584
 C         2.418330        -0.333445        -3.176227
 C         2.214553         0.930437        -3.901203
 C         1.120990         0.345382        -3.028933
 O         0.976380         0.844750        -1.736143
 C         2.185492         0.672116        -1.019948
 C         2.988761        -0.364104        -1.751839
 C         1.991204         0.468554         0.480662
 O         3.017929         0.428056         1.270000
 H         3.787855        -1.613427        -4.240846
 H         2.511586        -2.530233        -3.109759
 H         2.148503        -1.864461        -4.709990
 H         2.655268         1.851327        -3.595076
 H         2.178193         0.813552        -5.011586
 H         0.216487        -0.037285        -3.423066
 H         2.806552         1.624166        -1.090330
 H         4.021680        -0.044229        -1.559606
 H         2.923969        -1.339646        -1.240435
 H         0.920932         0.409269         0.809673
