19
Iteration:  4160charge 0 multiplicity 1
 C         2.503766        -1.704753        -3.960456
 C         2.499974        -0.358930        -3.249157
 C         2.313716         1.031642        -3.864694
 C         1.159989         0.382799        -3.038985
 O         0.930295         0.766843        -1.634304
 C         2.284870         0.764853        -1.034704
 C         3.067781        -0.420778        -1.741921
 C         2.199794         0.366974         0.406383
 O         2.843722         0.587631         1.366080
 H         3.416323        -2.204083        -3.986990
 H         1.936580        -2.309633        -3.199156
 H         1.872497        -1.787243        -4.890661
 H         2.940374         1.821410        -3.504254
 H         2.069419         0.902876        -4.861134
 H         0.235291         0.184705        -3.477019
 H         2.540677         1.811200        -1.134113
 H         4.103871        -0.558731        -1.421346
 H         2.556742        -1.260873        -1.224863
 H         1.217308        -0.264613         0.454783
