19
Iteration:  1019
 C         2.421504        -1.795944        -3.664254
 C         2.559177        -0.306968        -3.134992
 C         2.296168         0.979125        -3.903832
 C         1.165992         0.463330        -3.058235
 O         0.914602         0.804705        -1.706718
 C         2.186520         0.759687        -1.050373
 C         3.217308        -0.180079        -1.784460
 C         2.009102         0.403805         0.424504
 O         2.926563         0.269719         1.155818
 H         2.847107        -1.949581        -4.625718
 H         3.102164        -2.483610        -3.175161
 H         1.324386        -2.097110        -3.317468
 H         2.980294         1.712456        -3.285884
 H         2.304167         1.028694        -5.023523
 H         0.267210         0.115656        -3.491990
 H         2.577062         1.793288        -1.127719
 H         4.184018         0.413160        -1.809534
 H         3.452231        -1.093631        -1.312641
 H         0.859410         0.229164         0.695376
