19
Iteration:  1547
 C         2.582663        -1.824628        -3.732881
 C         2.331808        -0.402575        -3.294487
 C         2.052701         0.817096        -4.042072
 C         1.144723         0.434957        -2.864726
 O         1.144052         1.045417        -1.551772
 C         2.520732         0.809078        -0.977249
 C         3.319547        -0.058246        -2.041481
 C         2.233912         0.012810         0.333246
 O         2.393347         0.512391         1.406347
 H         3.634191        -1.919488        -3.875465
 H         2.333509        -2.730960        -3.011425
 H         1.942693        -2.151048        -4.634188
 H         2.832404         1.596639        -3.828849
 H         1.490092         0.909133        -4.913356
 H         0.071591         0.276125        -2.998814
 H         2.781694         1.813540        -0.667699
 H         4.008781         0.646295        -2.429200
 H         3.539759        -0.989993        -1.454826
 H         2.149043        -1.085970         0.241816
