19
Iteration:  1322charge 0 multiplicity 1
 C         2.543367        -1.693367        -3.972191
 C         2.462752        -0.365518        -3.198855
 C         2.303016         0.930504        -3.816459
 C         1.147126         0.374562        -2.995803
 O         0.954027         0.699836        -1.661625
 C         2.239508         0.787251        -1.062472
 C         3.070046        -0.321020        -1.795331
 C         2.095853         0.532654         0.457727
 O         2.886793         0.448793         1.328384
 H         3.605752        -2.251965        -4.131456
 H         2.005149        -2.443339        -3.374503
 H         2.045829        -1.630349        -4.913312
 H         2.928734         1.740609        -3.478338
 H         2.098660         0.945168        -4.965975
 H         0.181031         0.186610        -3.333012
 H         2.823629         1.794364        -1.175620
 H         4.186047        -0.223396        -1.664607
 H         2.894745        -1.207825        -1.071662
 H         1.063636         0.508888         0.702392
