19
Iteration:  2516
 C         2.642231        -1.724782        -3.899179
 C         2.506658        -0.429632        -3.154118
 C         2.153753         0.837388        -3.846092
 C         1.119089         0.234419        -2.988903
 O         0.955864         0.999184        -1.683698
 C         2.274428         0.846798        -1.052123
 C         3.148250        -0.291136        -1.680187
 C         2.055688         0.655716         0.418266
 O         2.852390         0.210605         1.185036
 H         3.762106        -1.645658        -4.343462
 H         2.476257        -2.593604        -3.300236
 H         1.795424        -1.815731        -4.568515
 H         2.498156         1.873984        -3.406897
 H         2.091750         0.792782        -4.955508
 H         0.197590        -0.262047        -3.323282
 H         2.805035         1.816457        -0.941513
 H         4.140687         0.078885        -1.705026
 H         3.201308        -1.203078        -1.032101
 H         0.923941         0.791735         0.638862
