19
Iteration:  2132charge 0 multiplicity 1
 C         2.469358        -1.749734        -3.713704
 C         2.444887        -0.371987        -3.177437
 C         2.047240         0.780585        -4.050992
 C         1.157118         0.293595        -2.875576
 O         1.220302         1.055238        -1.730668
 C         2.461196         0.782874        -0.959973
 C         3.313031         0.060451        -1.949343
 C         2.028210         0.058582         0.359745
 O         2.571179         0.435397         1.423169
 H         3.432439        -2.201405        -4.153580
 H         2.360164        -2.393233        -2.861299
 H         1.704010        -1.936424        -4.559139
 H         2.409190         1.877440        -4.056365
 H         1.854697         0.484608        -5.051964
 H         0.183014        -0.137523        -3.107387
 H         2.896062         1.818899        -0.762342
 H         4.150851         0.750929        -2.246566
 H         3.690646        -0.870675        -1.499086
 H         1.227875        -0.747044         0.291123
