19
Iteration:  4493
 C         2.541444        -1.709939        -3.982197
 C         2.398556        -0.486731        -3.147815
 C         2.320567         0.895021        -3.958499
 C         1.148448         0.446289        -3.050095
 O         0.942036         0.846412        -1.664728
 C         2.209926         0.775583        -1.046174
 C         3.071985        -0.363319        -1.771581
 C         2.037388         0.531147         0.511914
 O         2.952030         0.445458         1.435902
 H         3.602396        -1.663763        -4.306496
 H         2.310151        -2.679905        -3.689317
 H         2.026200        -1.520154        -4.889298
 H         3.178000         1.554020        -3.599642
 H         2.371415         0.631805        -5.065959
 H         0.221117         0.005181        -3.544825
 H         2.868732         1.694405        -1.160669
 H         4.155792        -0.275008        -1.583045
 H         2.870939        -1.256743        -1.232772
 H         0.972350         0.526215         0.736135
