19
Iteration:  4009charge 0 multiplicity 1
 C         2.556124        -1.773748        -3.940801
 C         2.368915        -0.482254        -3.054666
 C         2.311221         0.887582        -3.863722
 C         1.177782         0.395182        -3.034750
 O         0.889544         0.885025        -1.661684
 C         2.192738         0.844959        -1.074410
 C         3.131697        -0.170296        -1.774865
 C         2.080329         0.424305         0.456782
 O         2.955466         0.317356         1.290774
 H         3.617827        -2.134520        -3.956105
 H         1.897784        -2.609864        -3.660199
 H         2.417267        -1.421412        -4.977670
 H         3.023798         1.620065        -3.618067
 H         2.211035         0.737957        -5.006384
 H         0.203377         0.146028        -3.450166
 H         2.666750         1.875966        -0.992820
 H         4.173706         0.184910        -2.041121
 H         3.079179        -1.003495        -1.068669
 H         0.986759         0.591904         0.807756
