19
Iteration:  1358
 C         2.568086        -1.774268        -3.717581
 C         2.461509        -0.407340        -3.188749
 C         2.304724         0.959212        -3.844512
 C         1.146157         0.426719        -2.995030
 O         0.935704         0.884772        -1.744511
 C         2.108793         0.747106        -1.001912
 C         3.138405        -0.194531        -1.781824
 C         1.978403         0.369599         0.528936
 O         3.013551         0.351043         1.084953
 H         3.646825        -2.154996        -3.626329
 H         1.855533        -2.375440        -3.145493
 H         2.298312        -1.905624        -4.835994
 H         2.995710         1.762783        -3.402899
 H         2.197306         0.988148        -4.868192
 H         0.164875         0.160212        -3.575714
 H         2.477428         1.806779        -0.959087
 H         4.106007         0.253437        -2.031926
 H         3.190065        -1.310350        -1.349383
 H         1.033971         0.222753         1.008244
