19
Iteration:  4252charge 0 multiplicity 1
 C         2.480476        -1.714821        -3.905631
 C         2.448676        -0.395747        -3.201799
 C         2.094250         0.992582        -3.975700
 C         1.179251         0.363020        -2.963063
 O         1.164535         0.927085        -1.645367
 C         2.450403         0.757906        -1.054301
 C         3.110412        -0.436097        -1.813532
 C         2.216274         0.336375         0.378662
 O         2.570317         0.575115         1.482594
 H         3.472842        -1.890220        -4.450657
 H         2.428962        -2.531953        -3.221704
 H         1.645501        -1.660289        -4.554244
 H         2.565263         1.883779        -3.603002
 H         1.948430         0.822149        -5.141494
 H         0.208298        -0.154666        -3.197272
 H         3.269378         1.509634        -1.148470
 H         4.235758        -0.312113        -1.884409
 H         2.971079        -1.458975        -1.476044
 H         1.362813        -0.327441         0.376307
