19
Iteration:   209
 C         2.487776        -1.688949        -4.091377
 C         2.371986        -0.466604        -3.221530
 C         2.236084         1.047739        -3.716338
 C         1.207837         0.386339        -2.877568
 O         1.114451         0.779556        -1.548038
 C         2.541527         0.622003        -1.076112
 C         3.173504        -0.535580        -1.864776
 C         2.342539         0.186977         0.361178
 O         2.282603         0.960276         1.330793
 H         2.049054        -2.608080        -3.316695
 H         1.947115        -1.651965        -5.042338
 H         3.490460        -1.994165        -4.334067
 H         3.034572         1.736053        -3.294959
 H         1.907375         1.462420        -4.684994
 H         0.266193         0.487762        -3.473564
 H         3.001499         1.649336        -1.170424
 H         4.251610        -0.459071        -1.877330
 H         2.837208        -1.418944        -1.366862
 H         2.139121        -0.909450         0.542886
