19
Iteration:  1182
 C         2.431513        -1.682590        -3.972561
 C         2.483543        -0.448219        -3.143296
 C         2.376455         0.976208        -3.762539
 C         1.153559         0.366297        -3.024243
 O         0.867516         0.806847        -1.674789
 C         2.169448         0.657435        -0.972257
 C         3.164347        -0.275270        -1.800439
 C         2.106490         0.181705         0.447794
 O         2.917567         0.732756         1.238865
 H         3.364584        -2.317911        -3.742860
 H         1.708868        -2.425381        -3.612989
 H         2.200946        -1.509780        -5.055959
 H         2.992774         1.769886        -3.314765
 H         2.352467         1.126577        -4.894154
 H         0.377279         0.035797        -3.627236
 H         2.618164         1.681528        -0.876683
 H         4.184123         0.172148        -2.008390
 H         3.304810        -1.289132        -1.320718
 H         1.331714        -0.436432         0.820557
