19
Iteration:  3113charge 0 multiplicity 1
 C         2.846428        -1.744475        -3.536520
 C         2.392346        -0.314520        -3.083441
 C         1.974484         0.809577        -4.101174
 C         1.052639         0.366363        -2.995075
 O         1.008655         0.976163        -1.690938
 C         2.287377         1.005418        -1.011853
 C         3.118963        -0.019955        -1.823907
 C         2.153089         0.463325         0.385699
 O         2.843810        -0.099813         1.181580
 H         3.984921        -1.796811        -3.642930
 H         2.311619        -2.416312        -2.868419
 H         2.508738        -1.936541        -4.587122
 H         2.519176         1.761716        -4.180102
 H         1.396998         0.520746        -4.979986
 H         0.091985        -0.056554        -3.309695
 H         2.709976         2.024389        -1.113526
 H         4.246021         0.315522        -1.850676
 H         3.332321        -1.032475        -1.343193
 H         0.979680         0.535973         0.677981
