19
Iteration:  1404
 C         2.631121        -1.662667        -3.699212
 C         2.467046        -0.377841        -3.073573
 C         2.190424         0.806427        -3.905806
 C         1.081939         0.332135        -2.999614
 O         0.982163         0.993546        -1.733736
 C         2.253756         0.962032        -1.041067
 C         3.090001        -0.109499        -1.724481
 C         2.089483         0.300639         0.298932
 O         2.909231         0.208603         1.208312
 H         3.606291        -1.806697        -4.044066
 H         2.379879        -2.487361        -2.953700
 H         1.937005        -1.848379        -4.624876
 H         2.701408         1.706958        -3.784917
 H         2.024633         0.475122        -4.990335
 H         0.173408        -0.097260        -3.371753
 H         2.799565         1.878611        -1.045736
 H         4.176512         0.075006        -1.615314
 H         2.722926        -1.136585        -1.188079
 H         1.198766        -0.263602         0.420545
