19
Iteration:  4258
 C         2.515826        -1.715981        -3.936206
 C         2.448307        -0.359559        -3.196529
 C         2.085210         0.976171        -3.964511
 C         1.212159         0.330167        -2.906815
 O         1.178685         0.959619        -1.651133
 C         2.466710         0.772283        -1.024663
 C         3.127709        -0.451156        -1.872792
 C         2.118027         0.295503         0.403292
 O         2.598556         0.599981         1.451344
 H         3.426639        -1.908312        -4.440200
 H         2.408771        -2.517741        -3.129883
 H         1.537632        -1.873604        -4.527160
 H         2.579853         1.917998        -3.663811
 H         1.849559         0.830719        -4.950881
 H         0.189286        -0.001808        -3.177468
 H         3.146196         1.634470        -1.204540
 H         4.208685        -0.539547        -2.001865
 H         2.957463        -1.461430        -1.398792
 H         1.200412        -0.447192         0.338590
