19
Iteration:  2788charge 0 multiplicity 1
 C         2.504913        -1.741550        -3.962922
 C         2.384708        -0.345983        -3.318563
 C         2.175906         1.019484        -3.916251
 C         1.145782         0.329057        -2.989480
 O         1.135221         0.767230        -1.557756
 C         2.427420         0.686323        -1.063670
 C         3.178795        -0.343295        -1.920773
 C         2.151138         0.229622         0.511403
 O         2.601616         0.765650         1.497557
 H         3.520518        -2.070017        -4.038693
 H         2.017231        -2.457382        -3.183454
 H         2.160854        -1.761879        -5.036572
 H         2.999094         1.743518        -3.529697
 H         1.832790         1.159584        -4.910909
 H         0.238176        -0.102824        -3.326462
 H         2.830089         1.679070        -1.133922
 H         4.177493        -0.152578        -2.200985
 H         3.187694        -1.392009        -1.624468
 H         1.244919        -0.423732         0.544222
