19
Iteration:   337
 C         2.538978        -1.715070        -3.924147
 C         2.398217        -0.427071        -3.249502
 C         2.190301         0.936992        -3.948294
 C         1.181452         0.397154        -2.930489
 O         1.226325         1.052011        -1.625151
 C         2.449514         0.611280        -0.975486
 C         3.115901        -0.399715        -1.972853
 C         2.124615         0.088231         0.444532
 O         2.457095         0.796349         1.455353
 H         2.419714        -2.563851        -3.293254
 H         1.820473        -1.890065        -4.781209
 H         3.683036        -1.705816        -4.322541
 H         2.774392         1.768294        -3.497527
 H         1.978696         0.857825        -5.026331
 H         0.165701        -0.070557        -3.213048
 H         3.037479         1.496633        -0.842822
 H         4.195918        -0.375735        -2.116935
 H         2.976934        -1.398251        -1.455017
 H         1.643164        -0.830858         0.607953
