19
Iteration:  4358charge 0 multiplicity 1
 C         2.392883        -1.726137        -3.677121
 C         2.447026        -0.341006        -3.225873
 C         2.234211         0.981560        -3.919345
 C         1.177027         0.431124        -3.024999
 O         1.114889         0.827953        -1.623484
 C         2.419903         0.693543        -1.058981
 C         3.214153        -0.296893        -1.898656
 C         2.102414         0.166602         0.295596
 O         2.647754         0.612330         1.367773
 H         3.304646        -2.182893        -3.966978
 H         1.670049        -2.228101        -3.006752
 H         1.801205        -1.694832        -4.621686
 H         2.842918         1.771106        -3.581408
 H         2.167533         1.036357        -5.030628
 H         0.088899         0.149970        -3.188719
 H         3.024727         1.625362        -0.920476
 H         4.287788         0.071791        -1.970727
 H         3.140041        -1.162918        -1.216676
 H         1.245552        -0.589550         0.368657
