19
Iteration:   819
 C         2.501171        -1.731556        -3.948493
 C         2.454352        -0.389682        -3.185023
 C         2.521129         0.987592        -3.804258
 C         1.196715         0.475460        -3.111219
 O         0.883669         0.841246        -1.712125
 C         2.189875         0.752980        -0.998701
 C         2.956113        -0.441522        -1.742853
 C         2.133543         0.184520         0.457372
 O         2.858129         0.693200         1.369866
 H         2.324390        -2.490146        -3.163815
 H         1.714424        -1.671859        -4.759225
 H         3.355801        -1.951254        -4.582263
 H         3.196571         1.764347        -3.479372
 H         2.618263         0.933014        -4.828751
 H         0.317309         0.282662        -3.662629
 H         2.793365         1.648933        -0.991628
 H         4.011090        -0.256964        -1.746331
 H         2.672089        -1.392479        -1.271430
 H         1.314626        -0.718602         0.624204
