19
Iteration:  1079charge 0 multiplicity 1
 C         2.628226        -1.648896        -3.964790
 C         2.397132        -0.470676        -3.082791
 C         2.199432         0.751064        -3.913412
 C         1.163462         0.363851        -2.946862
 O         0.992539         1.014352        -1.724655
 C         2.285041         0.918839        -1.012467
 C         3.047584        -0.289623        -1.734423
 C         2.076322         0.438475         0.447357
 O         2.885581         0.286178         1.314977
 H         3.536926        -1.331126        -4.690960
 H         2.891339        -2.613570        -3.426110
 H         1.879468        -1.958250        -4.687478
 H         2.699284         1.640348        -3.908958
 H         2.053337         0.572886        -5.018499
 H         0.096801        -0.045924        -3.343150
 H         2.892007         1.820004        -1.093238
 H         4.087378         0.041597        -1.886580
 H         2.959034        -1.272836        -0.999102
 H         0.913810         0.323580         0.764089
