19
Iteration:  3580
 C         2.581262        -1.650142        -3.932020
 C         2.555810        -0.341354        -3.102398
 C         2.256286         0.927628        -3.853609
 C         1.134008         0.242625        -3.066463
 O         0.902453         0.776930        -1.714856
 C         2.178781         0.861123        -0.988146
 C         3.037024        -0.286283        -1.622701
 C         2.079801         0.399006         0.394692
 O         2.986196         0.437255         1.242954
 H         3.569447        -1.646507        -4.371102
 H         2.387722        -2.555391        -3.297349
 H         1.837785        -1.638781        -4.817036
 H         2.795394         1.964419        -3.579161
 H         2.112152         0.907376        -4.911988
 H         0.159708        -0.247036        -3.351383
 H         2.593461         1.851127        -1.146981
 H         4.130232        -0.031556        -1.609663
 H         2.908605        -1.344223        -1.314607
 H         1.040626         0.220540         0.659198
