19
Iteration:  3312charge 0 multiplicity 1
 C         2.792693        -1.827854        -3.580210
 C         2.438624        -0.343643        -3.099455
 C         1.903947         0.806976        -3.948774
 C         1.089161         0.300413        -2.878116
 O         1.026078         1.028285        -1.677182
 C         2.336387         0.925415        -1.068256
 C         3.391767         0.137893        -1.934904
 C         2.033126         0.549069         0.340695
 O         2.690480        -0.180683         1.134354
 H         3.858169        -1.943411        -3.470423
 H         2.446159        -2.400877        -2.721554
 H         2.197645        -2.128195        -4.408469
 H         2.300467         1.783853        -3.904795
 H         1.694583         0.550704        -4.991038
 H         0.157150        -0.227177        -3.168894
 H         2.704199         1.970876        -0.916250
 H         4.334941         0.671812        -2.291061
 H         3.581271        -0.826303        -1.440600
 H         1.053090         1.132782         0.679452
