19
Iteration:  4130charge 0 multiplicity 1
 C         2.578796        -1.612774        -4.033178
 C         2.357812        -0.449877        -3.138627
 C         2.307682         0.921622        -3.842472
 C         1.129227         0.314992        -2.987128
 O         1.033947         0.894152        -1.673588
 C         2.283009         0.680491        -1.012463
 C         2.994194        -0.432716        -1.691199
 C         2.030655         0.435904         0.410063
 O         2.933762         0.556909         1.286995
 H         3.660170        -1.683696        -4.320544
 H         2.359104        -2.454876        -3.390306
 H         2.060903        -1.574046        -4.970827
 H         2.925806         1.796243        -3.407330
 H         2.148774         0.950742        -4.895312
 H         0.180501         0.036476        -3.443631
 H         2.800432         1.652364        -1.121171
 H         4.100805        -0.222083        -1.607222
 H         2.711777        -1.335533        -1.145690
 H         1.019174         0.069135         0.689666
