19
Iteration:  3062
 C         2.574554        -1.746221        -3.871772
 C         2.500374        -0.439862        -3.027313
 C         2.098966         0.845371        -3.836389
 C         1.125401         0.174796        -3.001054
 O         0.986803         0.966793        -1.693358
 C         2.232339         0.932753        -1.015482
 C         3.312553         0.024148        -1.759767
 C         1.965287         0.501684         0.374623
 O         2.883343         0.072740         1.145556
 H         3.408029        -1.790300        -4.586085
 H         2.814558        -2.602979        -3.166894
 H         1.654474        -1.709405        -4.476645
 H         2.553028         1.853737        -3.514020
 H         2.120926         0.575206        -4.847540
 H         0.264529        -0.375676        -3.327468
 H         2.622653         1.988862        -0.957412
 H         4.082057         0.684342        -1.995171
 H         3.566971        -0.690128        -0.923020
 H         0.902435         0.649588         0.859876
