19
Iteration:  4164charge 0 multiplicity 1
 C         2.471550        -1.683339        -3.936274
 C         2.480005        -0.339793        -3.264440
 C         2.340211         1.006668        -3.864198
 C         1.193624         0.370093        -3.025505
 O         0.928287         0.772545        -1.637655
 C         2.296509         0.714966        -1.077281
 C         3.041323        -0.381968        -1.737850
 C         2.161430         0.343429         0.392193
 O         2.857253         0.606398         1.388365
 H         3.501403        -2.191808        -3.924045
 H         1.875090        -2.316370        -3.299280
 H         1.904630        -1.851794        -4.803314
 H         3.001231         1.861984        -3.446785
 H         2.050590         1.057241        -4.960015
 H         0.149751         0.086945        -3.412761
 H         2.619643         1.785006        -1.103987
 H         4.163507        -0.420564        -1.492575
 H         2.717665        -1.330421        -1.269585
 H         1.261742        -0.355250         0.522423
