19
Iteration:  1585charge 0 multiplicity 1
 C         2.365963        -1.646842        -3.788747
 C         2.524443        -0.334096        -3.179437
 C         1.972259         0.796415        -4.035413
 C         1.159560         0.189667        -2.855942
 O         1.227065         0.960329        -1.656586
 C         2.498457         0.815222        -0.984387
 C         3.440516        -0.058529        -1.927174
 C         2.154900         0.117604         0.326497
 O         2.402641         0.503199         1.430478
 H         3.268157        -2.015578        -4.351526
 H         2.097412        -2.265942        -3.014960
 H         1.569371        -1.610932        -4.497950
 H         2.268692         1.813818        -3.737122
 H         1.818839         0.708057        -5.181000
 H         0.256881        -0.318223        -3.161540
 H         2.965386         1.791327        -0.775002
 H         4.393133         0.482566        -2.224299
 H         3.901209        -0.970829        -1.512479
 H         1.613417        -0.837204         0.078723
