19
Iteration:  1434
 C         2.653060        -1.793196        -3.806980
 C         2.392636        -0.462108        -3.184849
 C         2.028736         0.875650        -3.901489
 C         1.115750         0.359899        -2.937193
 O         1.144420         1.076091        -1.734017
 C         2.302443         0.777082        -0.964857
 C         3.301988        -0.139847        -1.880385
 C         1.942741         0.327397         0.445570
 O         2.760113         0.322744         1.291859
 H         3.706877        -1.713899        -4.251515
 H         2.771936        -2.484261        -2.973825
 H         1.837678        -2.160097        -4.502079
 H         2.661710         1.729972        -3.901032
 H         1.771120         0.829528        -4.913982
 H         0.075288        -0.003742        -3.210096
 H         2.901473         1.738559        -0.821274
 H         4.225643         0.374132        -2.089624
 H         3.473331        -1.147440        -1.488779
 H         0.878184        -0.138516         0.649413
