19
Iteration:  3825
 C         2.553825        -1.778267        -3.928640
 C         2.366633        -0.475334        -3.138779
 C         2.185189         0.852411        -3.933860
 C         1.139176         0.444377        -2.994867
 O         1.020067         1.002438        -1.652347
 C         2.393938         0.882066        -1.024423
 C         3.161204        -0.236425        -1.898603
 C         2.171006         0.168586         0.359522
 O         2.671127         0.513021         1.501570
 H         3.678712        -2.003266        -3.786272
 H         2.035518        -2.598073        -3.442845
 H         2.361801        -1.633152        -4.991571
 H         2.703711         1.864539        -3.790753
 H         1.851510         0.532640        -4.913689
 H         0.131041         0.074451        -3.342217
 H         3.018473         1.756849        -0.996496
 H         4.223590         0.127439        -2.078223
 H         3.210783        -1.123810        -1.271896
 H         1.690697        -0.782381         0.411962
