19
Iteration:   437
 C         2.688370        -1.763644        -3.788134
 C         2.441718        -0.383301        -3.154611
 C         2.421801         0.934486        -3.898876
 C         1.157529         0.433485        -3.136272
 O         0.894946         0.956695        -1.658281
 C         2.086651         0.784148        -1.018521
 C         2.923872        -0.274297        -1.630575
 C         1.965531         0.514322         0.468599
 O         3.023895         0.216493         1.085972
 H         2.541315        -2.362593        -2.936790
 H         2.208525        -2.096043        -4.654641
 H         3.826289        -2.109172        -3.850031
 H         3.177257         1.723713        -3.710596
 H         2.383402         0.525095        -4.945257
 H         0.228557         0.128232        -3.456033
 H         2.721476         1.693423        -1.046480
 H         3.950222        -0.085395        -1.461240
 H         2.677160        -1.246622        -1.279536
 H         0.980139         0.856697         1.048290
