19
Iteration:  1668
 C         2.644015        -1.818875        -3.843557
 C         2.388464        -0.317669        -3.230704
 C         1.997416         0.805881        -4.102766
 C         1.093719         0.399849        -2.919993
 O         1.147372         1.058565        -1.673585
 C         2.362796         0.831641        -0.947979
 C         3.246463        -0.129572        -1.859391
 C         2.164106         0.120740         0.399817
 O         2.625400         0.468143         1.464798
 H         3.704269        -1.937809        -4.225185
 H         2.563906        -2.722773        -3.068117
 H         2.053021        -2.054186        -4.766692
 H         2.624822         1.729330        -3.971246
 H         1.673387         0.647311        -5.114808
 H         0.113607        -0.130176        -3.044233
 H         2.814035         1.844393        -0.761902
 H         4.309365         0.112901        -1.895085
 H         3.100882        -1.092055        -1.299106
 H         1.535305        -0.772371         0.208859
