19
Iteration:    41
 C         2.770517        -1.621586        -3.695956
 C         2.395697        -0.372926        -3.082824
 C         2.296199         0.909743        -3.787058
 C         1.136085         0.311722        -3.051965
 O         0.915226         0.907629        -1.799613
 C         2.109370         0.787838        -1.045696
 C         2.926316        -0.289845        -1.732083
 C         2.045232         0.461770         0.422243
 O         3.015524         0.261451         1.106618
 H         2.501567        -2.545479        -3.027518
 H         2.500376        -1.716056        -4.740042
 H         3.866761        -1.775477        -3.595889
 H         2.825301         1.851975        -3.522021
 H         2.216177         0.774068        -4.861098
 H         0.145898         0.168462        -3.506116
 H         2.664039         1.797916        -1.128869
 H         3.933274         0.106961        -1.771194
 H         2.850739        -1.262207        -1.253136
 H         1.073359         0.389268         0.824148
