19
Iteration:  3877charge 0 multiplicity 1
 C         2.499214        -1.756948        -3.795267
 C         2.485310        -0.374419        -3.171137
 C         2.136382         0.934783        -3.958968
 C         1.104710         0.323879        -2.954362
 O         1.120935         0.984592        -1.731279
 C         2.319883         0.725740        -1.025423
 C         3.301659        -0.164508        -1.833654
 C         2.049906         0.247298         0.340350
 O         2.707190         0.425926         1.368124
 H         3.275467        -2.158876        -4.403638
 H         2.357802        -2.280965        -2.858910
 H         1.506398        -1.845744        -4.282846
 H         2.616323         1.837316        -3.471237
 H         2.159623         0.823223        -4.978361
 H         0.034874        -0.017466        -3.120791
 H         2.898435         1.656324        -0.891970
 H         4.251225         0.378444        -1.886384
 H         3.465908        -1.106105        -1.327228
 H         1.046932        -0.339512         0.469756
