19
Iteration:  1565
 C         2.469599        -1.800166        -3.779371
 C         2.431234        -0.372995        -3.179184
 C         2.019571         0.874162        -4.079061
 C         1.151782         0.374888        -2.912030
 O         1.195057         0.951411        -1.620212
 C         2.502155         0.802640        -1.008087
 C         3.350258         0.009747        -2.047824
 C         2.265896         0.072872         0.397144
 O         2.363971         0.492868         1.537420
 H         3.490523        -2.059432        -4.108341
 H         2.137866        -2.532134        -3.071357
 H         1.733413        -1.902167        -4.653553
 H         2.585261         1.731702        -4.041033
 H         1.526711         0.420896        -5.029139
 H         0.183431        -0.074108        -3.021501
 H         3.022716         1.823192        -0.846613
 H         4.297070         0.532592        -2.353872
 H         3.659993        -0.929218        -1.619810
 H         1.750916        -0.902351         0.045114
