19
Iteration:  4257
 C         2.513276        -1.716134        -3.932671
 C         2.448078        -0.364705        -3.197207
 C         2.084362         0.980728        -3.972473
 C         1.206727         0.333905        -2.915472
 O         1.175344         0.953690        -1.650451
 C         2.461851         0.774294        -1.028936
 C         3.124668        -0.447644        -1.864026
 C         2.142348         0.306575         0.406558
 O         2.589753         0.593252         1.451042
 H         3.430674        -1.908640        -4.423801
 H         2.414332        -2.528355        -3.138569
 H         1.531754        -1.829406        -4.522142
 H         2.578011         1.916169        -3.642629
 H         1.875715         0.829312        -4.946941
 H         0.230864        -0.014292        -3.170013
 H         3.172449         1.585801        -1.203530
 H         4.191767        -0.522583        -1.989530
 H         2.976239        -1.488829        -1.408174
 H         1.207745        -0.438166         0.354834
