19
Iteration:  2675charge 0 multiplicity 1
 C         2.550614        -1.760614        -3.874590
 C         2.380730        -0.375406        -3.118195
 C         2.066351         0.829575        -3.962343
 C         1.133399         0.365921        -2.934175
 O         1.167421         1.000912        -1.655084
 C         2.397302         0.722521        -0.983649
 C         3.295546        -0.182934        -1.871906
 C         1.994861         0.313404         0.379271
 O         2.665589         0.456022         1.380245
 H         3.461755        -1.614471        -4.599021
 H         2.739252        -2.725994        -3.254494
 H         1.730338        -2.082511        -4.605046
 H         2.735062         1.681764        -3.884017
 H         1.814395         0.620300        -4.984855
 H         0.140117         0.012445        -3.226493
 H         2.997349         1.670240        -0.863055
 H         4.303829         0.346448        -2.026294
 H         3.563850        -1.223702        -1.541199
 H         0.982049        -0.196339         0.439274
