19
Iteration:  3696charge 0 multiplicity 1
 C         2.514184        -1.536030        -4.145002
 C         2.401275        -0.436048        -3.065888
 C         2.270543         0.900994        -3.748709
 C         1.166295         0.317552        -2.961952
 O         0.970375         0.809946        -1.641718
 C         2.263269         0.594451        -1.053859
 C         3.103516        -0.462760        -1.692959
 C         2.125513         0.245235         0.417466
 O         2.802906         0.859407         1.250230
 H         3.607043        -1.254715        -4.446197
 H         2.540559        -2.646923        -3.895433
 H         2.013664        -1.500909        -5.087637
 H         2.940914         1.664801        -3.218014
 H         2.425071         0.955962        -4.748505
 H         0.269770         0.002342        -3.582733
 H         2.905199         1.531102        -1.061412
 H         4.212467        -0.252980        -1.589827
 H         2.752550        -1.385197        -1.168756
 H         1.441506        -0.552488         0.738356
