19
Iteration:  2358charge 0 multiplicity 1
 C         2.668078        -1.735861        -3.656125
 C         2.472062        -0.417260        -3.152160
 C         2.172728         0.947100        -4.026200
 C         1.099042         0.318303        -2.998302
 O         0.984344         0.998022        -1.740711
 C         2.194599         0.803333        -1.082064
 C         3.129832        -0.197266        -1.805260
 C         2.025031         0.467056         0.410016
 O         2.905948         0.193804         1.305508
 H         3.667439        -1.847820        -3.957219
 H         2.604196        -2.645559        -2.899993
 H         1.908828        -1.990815        -4.451168
 H         2.710380         1.816821        -3.609739
 H         2.089772         0.736196        -5.171472
 H         0.133773        -0.105028        -3.367340
 H         2.788825         1.737516        -0.956754
 H         4.179843         0.263442        -1.825534
 H         3.130713        -1.182852        -1.270329
 H         1.029320         0.662072         0.848615
