19
Iteration:    18
 C         2.810802        -1.822033        -3.761489
 C         2.459131        -0.400599        -3.128185
 C         2.195982         0.934739        -3.877445
 C         1.103241         0.405020        -2.999953
 O         0.880596         0.866326        -1.620946
 C         2.237046         0.942917        -1.051640
 C         3.079929        -0.211967        -1.703843
 C         1.972301         0.554895         0.364544
 O         2.914496         0.159948         1.091731
 H         2.666972        -2.783180        -3.165985
 H         2.443311        -1.820250        -4.831305
 H         3.933534        -1.899092        -3.870492
 H         2.890414         1.720483        -3.486752
 H         2.212666         0.968389        -4.970618
 H         0.101254         0.081088        -3.345672
 H         2.547543         2.001489        -1.265336
 H         4.151039        -0.028472        -1.485794
 H         2.691518        -1.135948        -1.230973
 H         0.959395         0.374815         0.672019
