19
Iteration:  2702
 C         2.565868        -1.792214        -3.805213
 C         2.394081        -0.331285        -3.275722
 C         2.085788         0.914754        -4.015894
 C         1.132447         0.372027        -2.960446
 O         1.174518         0.935459        -1.612217
 C         2.425701         0.712858        -0.988845
 C         3.251149        -0.224256        -1.986286
 C         2.052185         0.247562         0.425099
 O         2.613460         0.552191         1.508959
 H         3.466010        -1.815335        -4.336191
 H         2.569656        -2.577240        -3.049460
 H         1.767914        -2.173647        -4.449179
 H         2.773265         1.795052        -3.905497
 H         1.644271         0.880880        -5.054083
 H         0.147440         0.081849        -3.303639
 H         2.987909         1.637195        -0.871370
 H         4.262591         0.058189        -2.108145
 H         3.254030        -1.290815        -1.747259
 H         1.256145        -0.440341         0.436404
