19
Iteration:   350
 C         2.475945        -1.696751        -3.968156
 C         2.407422        -0.385376        -3.191014
 C         2.203561         0.891904        -4.019963
 C         1.153219         0.347066        -3.036151
 O         1.219122         0.982950        -1.642300
 C         2.432329         0.622247        -0.967941
 C         3.177670        -0.370733        -1.829337
 C         2.106664         0.203729         0.499132
 O         2.515864         0.710616         1.476622
 H         2.160359        -2.587671        -3.347406
 H         1.892248        -1.656938        -4.855048
 H         3.559551        -1.859450        -4.346614
 H         2.689264         1.819758        -3.688460
 H         2.029745         0.972786        -5.149796
 H         0.161804         0.020514        -3.355103
 H         3.063483         1.485091        -0.847423
 H         4.152609         0.134279        -1.915747
 H         3.306442        -1.486811        -1.490358
 H         1.363948        -0.530136         0.479698
