19
Iteration:  2767charge 0 multiplicity 1
 C         2.434186        -1.758508        -3.979281
 C         2.412089        -0.457132        -3.153269
 C         2.209335         0.937907        -3.806973
 C         1.148142         0.343409        -2.978559
 O         1.071021         0.820134        -1.580522
 C         2.406609         0.748444        -0.977987
 C         3.295168        -0.263958        -1.913023
 C         2.194563         0.226646         0.363848
 O         2.563063         0.719083         1.355590
 H         3.429582        -2.124384        -4.147695
 H         1.742814        -2.593174        -3.540979
 H         2.118000        -1.367046        -5.015398
 H         2.648598         1.970413        -3.452381
 H         1.919658         0.851828        -4.838283
 H         0.167637         0.186525        -3.361130
 H         2.876487         1.724205        -0.964262
 H         4.240730         0.196916        -1.952774
 H         3.500119        -1.192267        -1.367011
 H         1.630118        -0.854407         0.251739
