19
Iteration:  2297
 C         2.568829        -1.791985        -3.660698
 C         2.438267        -0.410684        -3.093098
 C         2.152755         0.828614        -3.875881
 C         1.079008         0.285843        -2.999937
 O         1.011712         1.067940        -1.809853
 C         2.333861         0.914799        -1.041935
 C         3.289690        -0.052082        -1.870341
 C         1.991898         0.312048         0.366895
 O         2.813618         0.192300         1.304890
 H         3.589542        -1.955492        -4.173727
 H         2.345804        -2.512838        -2.932516
 H         1.893169        -1.816692        -4.540382
 H         2.694668         1.689164        -3.648194
 H         2.098667         0.747398        -5.006260
 H         0.067745        -0.149711        -3.231017
 H         2.793218         1.917031        -0.986465
 H         4.144853         0.572281        -2.030773
 H         3.570718        -0.760738        -1.063440
 H         0.968431        -0.194458         0.449311
