19
Iteration:  3171
 C         2.561985        -1.734749        -3.704893
 C         2.482529        -0.338759        -3.001197
 C         2.065612         0.728201        -3.994587
 C         1.145695         0.146342        -2.866197
 O         1.026873         0.967905        -1.761664
 C         2.239357         1.122874        -1.013175
 C         3.328871         0.196671        -1.773517
 C         2.021546         0.480122         0.424926
 O         2.845608        -0.149682         1.044588
 H         3.561818        -2.133228        -3.684345
 H         1.988548        -2.527070        -3.145205
 H         2.052414        -1.664735        -4.666639
 H         2.338625         1.758714        -3.841386
 H         1.978296         0.456047        -5.055659
 H         0.321424        -0.540555        -3.062774
 H         2.580910         2.135489        -0.933241
 H         4.164859         0.819841        -2.049997
 H         3.600299        -0.684418        -1.153257
 H         0.934988         0.805521         0.860394
