19
Iteration:   946charge 0 multiplicity 1
 C         2.673267        -1.699475        -3.814650
 C         2.412235        -0.384461        -3.167351
 C         2.107145         0.864049        -3.880676
 C         1.066039         0.382722        -3.002895
 O         1.153246         1.013482        -1.743648
 C         2.370018         0.763961        -1.028876
 C         3.095856        -0.381265        -1.750295
 C         1.970670         0.438116         0.393349
 O         2.804257         0.334103         1.271821
 H         1.939214        -1.891656        -4.565418
 H         3.427428        -1.546178        -4.611993
 H         2.962966        -2.432311        -3.077542
 H         2.499530         1.725176        -3.301083
 H         2.036588         0.914476        -4.915627
 H         0.109372         0.073399        -3.102863
 H         3.010140         1.670353        -1.047044
 H         4.173493        -0.120030        -1.620682
 H         2.910323        -1.363267        -1.126326
 H         0.895302         0.345769         0.589479
