19
Iteration:  1634
 C         2.657386        -1.729122        -3.828993
 C         2.295317        -0.449774        -3.123984
 C         2.018523         0.783692        -3.978932
 C         1.021433         0.414669        -2.847251
 O         1.220805         1.047123        -1.672213
 C         2.491657         0.811928        -1.065705
 C         3.296570        -0.110759        -1.987496
 C         2.154808         0.117130         0.326336
 O         2.505071         0.484442         1.488635
 H         3.539311        -1.390141        -4.363125
 H         2.934342        -2.618888        -3.117659
 H         1.815090        -2.074247        -4.540481
 H         2.720171         1.685381        -3.763739
 H         1.741319         0.525314        -4.954001
 H         0.060918        -0.111614        -3.132883
 H         2.933694         1.823309        -0.802040
 H         4.266405         0.206710        -2.355352
 H         3.400131        -1.099136        -1.466236
 H         1.364309        -0.752961         0.175179
