19
Iteration:  3620
 C         2.636587        -1.615549        -4.088300
 C         2.375447        -0.422388        -3.172137
 C         2.323247         0.920328        -3.762068
 C         1.082910         0.369598        -2.935021
 O         0.937297         0.700676        -1.636643
 C         2.216532         0.625959        -1.018918
 C         3.146271        -0.419615        -1.763774
 C         2.055532         0.480352         0.435310
 O         2.912308         0.658880         1.264363
 H         3.685576        -1.842352        -4.311951
 H         2.044642        -2.524284        -3.841207
 H         2.356570        -1.433640        -5.099082
 H         2.860455         1.754487        -3.282955
 H         2.152508         1.023228        -4.775017
 H         0.246039        -0.131815        -3.448159
 H         2.614670         1.688922        -0.904451
 H         4.115341         0.043119        -1.745826
 H         2.971398        -1.286697        -1.122870
 H         0.946182         0.430511         0.809973
