19
Iteration:  1489charge 0 multiplicity 1
 C         2.461715        -1.761150        -3.844531
 C         2.570305        -0.407613        -3.210817
 C         1.961220         0.819030        -3.989873
 C         1.208420         0.254458        -2.853362
 O         1.208790         1.020140        -1.632376
 C         2.439128         0.883867        -1.057130
 C         3.328237        -0.022873        -1.904800
 C         2.117268         0.147412         0.323979
 O         2.489287         0.420886         1.463439
 H         3.285080        -2.000705        -4.557875
 H         2.247395        -2.550871        -3.117290
 H         1.610195        -1.626806        -4.616560
 H         2.351838         1.790537        -3.932846
 H         1.681670         0.493206        -5.012968
 H         0.218610        -0.176382        -2.882725
 H         2.912286         1.891186        -0.788556
 H         4.335233         0.267034        -2.008699
 H         3.563918        -0.911085        -1.363965
 H         1.216156        -0.443337         0.092271
