19
Iteration:  1705charge 0 multiplicity 1
 C         2.425820        -1.681244        -3.820421
 C         2.516241        -0.369922        -3.060297
 C         2.143760         0.893269        -3.875807
 C         1.095610         0.247148        -2.930879
 O         1.027056         0.879694        -1.727970
 C         2.349906         0.789355        -1.047351
 C         3.377267        -0.080605        -1.811222
 C         2.023934         0.216995         0.339301
 O         2.737960         0.476607         1.252948
 H         3.523949        -1.976883        -3.917010
 H         1.917260        -2.389583        -3.186643
 H         1.878850        -1.698607        -4.741959
 H         2.520023         1.731896        -3.331570
 H         2.320925         0.871752        -4.961154
 H         0.238089        -0.343278        -3.172910
 H         2.740012         1.757247        -0.941782
 H         4.343028         0.477249        -1.959545
 H         3.598014        -1.105636        -1.525851
 H         1.111864        -0.460342         0.477202
