19
Iteration:  1674
 C         2.604606        -1.798524        -3.832451
 C         2.441896        -0.333711        -3.164052
 C         1.981007         0.825849        -4.047302
 C         1.169342         0.351826        -2.931748
 O         1.119838         1.041657        -1.691363
 C         2.390818         0.841359        -0.954664
 C         3.214918        -0.102189        -1.852487
 C         2.100419         0.082878         0.351844
 O         2.659590         0.491521         1.429015
 H         3.619970        -1.938933        -4.166623
 H         2.391353        -2.555055        -3.162603
 H         2.045557        -2.005901        -4.775265
 H         2.517067         1.813825        -3.981413
 H         1.736313         0.644540        -5.101108
 H         0.163008        -0.070932        -3.060041
 H         2.861243         1.841292        -0.826649
 H         4.302918         0.081079        -1.858634
 H         3.203741        -1.112367        -1.423444
 H         1.473980        -0.883626         0.390104
