19
Iteration:   400
 C         2.467917        -1.751270        -3.883528
 C         2.453377        -0.400797        -3.099089
 C         2.348703         0.941942        -3.815848
 C         1.150518         0.336551        -3.037940
 O         1.021326         0.828618        -1.731548
 C         2.316801         0.827331        -1.074876
 C         3.169549        -0.258729        -1.763469
 C         1.990100         0.467700         0.396593
 O         2.800700         0.373616         1.329290
 H         1.844603        -2.408549        -3.268415
 H         1.837247        -1.816923        -4.853231
 H         3.485555        -2.083951        -4.094410
 H         2.860358         1.802644        -3.384614
 H         2.463044         0.938054        -4.876310
 H         0.231297        -0.001130        -3.634778
 H         2.701435         1.897143        -1.081630
 H         4.195598         0.114488        -1.858506
 H         3.183019        -1.091851        -1.092990
 H         0.908799         0.199058         0.580434
