19
Iteration:  2316charge 0 multiplicity 1
 C         2.553536        -1.755772        -3.796385
 C         2.453989        -0.401620        -2.979284
 C         2.205569         0.722690        -3.944792
 C         1.202541         0.272121        -2.915233
 O         0.991063         1.086195        -1.741473
 C         2.232767         0.950932        -1.004720
 C         3.231084        -0.058314        -1.712574
 C         1.983003         0.314258         0.292937
 O         2.866650         0.210233         1.185473
 H         3.530181        -1.864074        -4.169879
 H         2.399152        -2.613015        -3.175471
 H         1.820922        -1.633094        -4.621648
 H         2.536296         1.748083        -3.654048
 H         2.100858         0.455165        -5.089719
 H         0.215394        -0.157606        -3.225510
 H         2.553924         2.002648        -0.859384
 H         4.181420         0.429775        -2.053025
 H         3.317030        -0.937350        -1.168308
 H         0.900103         0.034557         0.293980
