19
Iteration:  2194
 C         2.560998        -1.749818        -3.720537
 C         2.395644        -0.405227        -2.995998
 C         2.066425         0.765633        -4.008299
 C         1.146233         0.316297        -2.835453
 O         1.103818         1.109377        -1.677632
 C         2.420926         0.917998        -1.016528
 C         3.309274        -0.047486        -1.858297
 C         2.063560         0.091977         0.204145
 O         2.607011         0.356086         1.229585
 H         3.536297        -1.822294        -4.090594
 H         2.349324        -2.595086        -2.999896
 H         1.720976        -1.777730        -4.392135
 H         2.827460         1.648226        -3.822538
 H         1.937916         0.389000        -5.024885
 H         0.132790         0.050318        -3.005933
 H         3.014510         1.802363        -0.712022
 H         4.262968         0.541095        -2.113985
 H         3.620502        -0.870860        -1.246995
 H         1.285702        -0.737067         0.009040
