19
Iteration:  2838
 C         2.567701        -1.573171        -4.168747
 C         2.420739        -0.449597        -3.099683
 C         2.260923         0.887765        -3.802975
 C         1.214910         0.242198        -2.904425
 O         0.987596         0.863068        -1.644858
 C         2.322879         0.664534        -0.983721
 C         3.043558        -0.428673        -1.735856
 C         2.106986         0.330065         0.410583
 O         2.780330         0.768662         1.302832
 H         3.610894        -1.318154        -4.602110
 H         2.479143        -2.600942        -3.806659
 H         1.757723        -1.513695        -4.933040
 H         2.597122         1.715388        -3.250748
 H         2.230376         0.980712        -4.907746
 H         0.233203         0.022426        -3.313364
 H         2.807196         1.690849        -1.022466
 H         4.193480        -0.404804        -1.903263
 H         2.849569        -1.446627        -1.299287
 H         1.325649        -0.559492         0.597597
