19
Iteration:   539
 C         2.475033        -1.664237        -3.983341
 C         2.537016        -0.389924        -3.250447
 C         2.234670         0.943615        -3.882418
 C         1.213289         0.255837        -3.001185
 O         1.068560         0.734451        -1.666720
 C         2.390816         0.726947        -1.029022
 C         3.222772        -0.345578        -1.861957
 C         2.018023         0.775673         0.527727
 O         2.577284         0.316641         1.474186
 H         2.012097        -2.454522        -3.351586
 H         1.924580        -1.665106        -4.931237
 H         3.480202        -1.952978        -4.358606
 H         2.904643         1.686882        -3.568767
 H         2.111253         1.019936        -4.952492
 H         0.244149        -0.210085        -3.410851
 H         2.818740         1.768178        -1.056333
 H         4.292214         0.016964        -1.961814
 H         3.168344        -1.382881        -1.486852
 H         1.231836         1.458181         0.597893
