19
Iteration:   598charge 0 multiplicity 1
 C         2.613700        -1.726255        -3.921435
 C         2.430182        -0.435171        -3.113563
 C         2.313968         0.892069        -3.895589
 C         1.145925         0.348333        -3.041182
 O         1.021573         0.980562        -1.745379
 C         2.351360         0.848840        -1.019228
 C         3.057753        -0.321118        -1.709890
 C         2.020491         0.508338         0.453478
 O         2.752183         0.294253         1.357359
 H         2.549923        -2.690965        -3.384362
 H         1.816616        -1.627491        -4.708769
 H         3.556875        -1.761831        -4.332283
 H         2.781404         1.924623        -3.690828
 H         2.104112         0.630510        -4.931755
 H         0.209302        -0.005781        -3.384899
 H         2.929031         1.758789        -1.174113
 H         4.147736        -0.214600        -1.841059
 H         2.976835        -1.365254        -1.180622
 H         0.971418         0.317215         0.471840
