19
Iteration:  4082charge 0 multiplicity 1
 C         2.604082        -1.690912        -4.041466
 C         2.432391        -0.422563        -3.186502
 C         2.282529         0.916448        -3.855346
 C         1.142881         0.358188        -3.008044
 O         0.968392         0.793857        -1.630254
 C         2.300439         0.813083        -1.003970
 C         2.996755        -0.424003        -1.724268
 C         2.064370         0.508119         0.504522
 O         2.917118         0.460362         1.289219
 H         3.493592        -1.519094        -4.575689
 H         2.682637        -2.610045        -3.420953
 H         1.959755        -1.620527        -4.964675
 H         2.851757         1.706047        -3.493703
 H         2.346306         0.850261        -4.985595
 H         0.094548         0.176545        -3.378498
 H         2.597871         1.855572        -1.100849
 H         4.061238        -0.337835        -1.675035
 H         2.498249        -1.314651        -1.263832
 H         0.993341         0.781215         0.762466
