19
Iteration:  2807
 C         2.556186        -1.675396        -3.996909
 C         2.480703        -0.348049        -3.254349
 C         2.136723         0.991220        -3.985735
 C         1.151067         0.435764        -2.945117
 O         1.056191         0.740082        -1.618689
 C         2.429379         0.557971        -0.981715
 C         3.122583        -0.443172        -1.903145
 C         2.125044         0.351373         0.499018
 O         2.665170         0.770866         1.492797
 H         3.561847        -1.993607        -4.314314
 H         2.400799        -2.437108        -3.252906
 H         2.043629        -1.691756        -4.960267
 H         2.530844         1.931164        -3.694109
 H         1.922946         0.857454        -5.046751
 H         0.160785         0.238312        -3.329819
 H         2.953365         1.539262        -0.950371
 H         4.248947        -0.349962        -2.000731
 H         2.884808        -1.517235        -1.637125
 H         1.353010        -0.436228         0.688308
