19
Iteration:   532charge 0 multiplicity 1
 C         2.526174        -1.681291        -3.981229
 C         2.493991        -0.331016        -3.236137
 C         2.280693         0.898299        -3.878882
 C         1.142543         0.271717        -3.020676
 O         1.035926         0.718625        -1.668243
 C         2.424556         0.719520        -1.016025
 C         3.184518        -0.302782        -1.862592
 C         2.053860         0.811325         0.473281
 O         2.604174         0.281814         1.479018
 H         2.144856        -2.488210        -3.331198
 H         1.946540        -1.459422        -4.953674
 H         3.432307        -2.125213        -4.314131
 H         2.974537         1.671194        -3.442607
 H         2.070785         0.911716        -4.993682
 H         0.347689        -0.157402        -3.528133
 H         2.844705         1.732096        -1.068884
 H         4.290860        -0.129269        -1.820113
 H         2.994114        -1.331658        -1.314063
 H         1.057465         1.470532         0.729223
