19
Iteration:  1362charge 0 multiplicity 1
 C         2.576597        -1.803676        -3.733159
 C         2.474081        -0.362776        -3.167598
 C         2.291593         0.934352        -3.824211
 C         1.147852         0.406386        -3.034403
 O         0.929242         0.902182        -1.733531
 C         2.124605         0.766565        -1.006523
 C         3.104865        -0.175480        -1.765573
 C         1.987482         0.346388         0.510403
 O         3.036548         0.337613         1.084548
 H         3.533447        -2.147762        -3.570073
 H         1.884394        -2.430355        -3.115674
 H         2.252311        -1.890766        -4.772934
 H         2.931675         1.719857        -3.542945
 H         2.275817         1.009002        -4.963283
 H         0.255564         0.169624        -3.539947
 H         2.459278         1.769860        -0.880493
 H         4.097945         0.286332        -1.862443
 H         3.121658        -1.138313        -1.363928
 H         0.879587         0.212651         0.900071
