19
Iteration:  2932
 C         2.633412        -1.630137        -3.999964
 C         2.434975        -0.383756        -3.174498
 C         2.268234         0.965268        -3.702230
 C         1.135784         0.238407        -3.038985
 O         0.903249         0.720857        -1.659999
 C         2.210151         0.768794        -1.022569
 C         3.073173        -0.332693        -1.744188
 C         2.047132         0.482399         0.445604
 O         2.980380         0.525598         1.222604
 H         3.570650        -2.068298        -3.887271
 H         1.810889        -2.337377        -3.779986
 H         2.488226        -1.525786        -5.073801
 H         2.645077         1.796779        -3.128052
 H         2.334205         1.139348        -4.837197
 H         0.173145         0.041047        -3.546187
 H         2.737549         1.699085        -1.208175
 H         4.126880        -0.216851        -1.780621
 H         2.944546        -1.290794        -1.224417
 H         1.023289         0.258723         0.966556
