19
Iteration:  3095charge 0 multiplicity 1
 C         2.759977        -1.701398        -3.618880
 C         2.501857        -0.307036        -3.180101
 C         2.006762         0.789240        -4.051524
 C         1.087357         0.315236        -2.952864
 O         0.934323         1.031495        -1.692930
 C         2.251993         0.899961        -1.051705
 C         3.200026        -0.041737        -1.824855
 C         2.015253         0.482665         0.481908
 O         2.906584        -0.049076         1.176871
 H         3.767257        -1.676121        -3.994844
 H         2.452271        -2.386974        -2.790229
 H         2.117285        -2.036440        -4.445678
 H         2.411574         1.861193        -4.097903
 H         1.956306         0.385338        -5.020786
 H         0.246474        -0.271767        -3.239131
 H         2.744822         1.859027        -0.890974
 H         4.196756         0.204669        -1.820448
 H         3.350244        -0.926387        -1.202561
 H         1.046960         0.758260         0.789605
