19
Iteration:  3563
 C         2.707978        -1.678180        -3.804126
 C         2.444026        -0.344192        -3.161551
 C         2.239983         0.935047        -3.963489
 C         1.141358         0.387241        -2.980106
 O         0.914792         0.802418        -1.652444
 C         2.181425         0.775015        -1.049087
 C         3.032340        -0.257554        -1.800589
 C         2.022651         0.434976         0.488043
 O         2.981822         0.371165         1.220333
 H         3.741761        -1.775004        -4.237544
 H         2.690096        -2.414789        -3.022622
 H         1.855568        -1.813534        -4.450495
 H         2.697655         1.820644        -3.719524
 H         2.062246         0.709417        -5.052188
 H         0.279506         0.003401        -3.489092
 H         2.662437         1.799773        -1.048963
 H         4.109797        -0.162387        -1.629743
 H         2.936304        -1.153391        -1.176959
 H         1.007397        -0.078301         0.650129
