19
Iteration:  4092charge 0 multiplicity 1
 C         2.646840        -1.660971        -4.138415
 C         2.347573        -0.478663        -3.151257
 C         2.262174         0.923552        -3.816940
 C         1.158672         0.341517        -2.987261
 O         1.023932         0.873985        -1.691334
 C         2.216633         0.716647        -0.979602
 C         2.991845        -0.397271        -1.669224
 C         2.006453         0.549315         0.473984
 O         2.967784         0.480285         1.296307
 H         3.656515        -1.572932        -4.457080
 H         2.674220        -2.644468        -3.595982
 H         1.880893        -1.931897        -4.903363
 H         2.917172         1.597336        -3.358480
 H         2.060200         0.905703        -4.925996
 H         0.146111         0.246333        -3.479828
 H         2.926795         1.554182        -0.988633
 H         4.037543        -0.202384        -1.724151
 H         2.994004        -1.397489        -1.192081
 H         0.902857         0.590373         0.833842
