19
Iteration:  2210
 C         2.494767        -1.810586        -3.742282
 C         2.502312        -0.463017        -3.061821
 C         2.115519         0.750137        -3.839360
 C         1.112057         0.325585        -2.872505
 O         1.117963         1.192000        -1.756003
 C         2.306156         0.897070        -1.023488
 C         3.346003         0.024413        -1.849242
 C         2.062897         0.105093         0.230092
 O         2.662177         0.338731         1.292781
 H         3.512950        -1.980458        -4.300233
 H         2.199073        -2.659118        -3.156027
 H         1.855115        -1.878384        -4.680951
 H         2.415578         1.743147        -3.762806
 H         1.692035         0.581804        -4.838734
 H         0.227460        -0.300168        -3.177230
 H         2.643887         1.899020        -0.724262
 H         4.289073         0.481170        -2.146553
 H         3.696914        -0.865889        -1.209964
 H         1.334378        -0.706093        -0.024556
