19
Iteration:   108
 C         2.531677        -1.657911        -4.037377
 C         2.424635        -0.407458        -3.126858
 C         2.326990         1.038837        -3.736947
 C         1.138225         0.343808        -3.054467
 O         0.964779         0.655284        -1.645115
 C         2.327595         0.743722        -1.065480
 C         3.158324        -0.477635        -1.715746
 C         2.036885         0.499467         0.362421
 O         2.790886         0.613514         1.354433
 H         2.261555        -2.672592        -3.372324
 H         1.947881        -1.627256        -4.905383
 H         3.596126        -1.845055        -4.290820
 H         2.573222         2.029495        -3.455657
 H         2.447295         0.900971        -4.811004
 H         0.257882         0.266221        -3.659030
 H         2.855237         1.730656        -1.189992
 H         4.145728        -0.141635        -1.911745
 H         3.149134        -1.339868        -1.067889
 H         0.965851         0.143526         0.475782
