19
Iteration:  2232
 C         2.492115        -1.771999        -3.678248
 C         2.443024        -0.377569        -3.114850
 C         2.089921         0.805718        -4.051022
 C         1.153044         0.262625        -2.917394
 O         1.142797         1.103332        -1.770703
 C         2.372758         0.894831        -0.983569
 C         3.246860         0.040501        -1.839675
 C         2.047392         0.154976         0.382362
 O         2.687597         0.285840         1.357478
 H         3.522058        -2.045053        -4.161280
 H         2.153961        -2.543581        -3.008703
 H         1.909210        -1.934515        -4.625653
 H         2.579157         1.689056        -3.856280
 H         2.089694         0.611020        -5.157886
 H         0.214014        -0.260486        -3.261578
 H         2.657620         1.912783        -0.719648
 H         4.088902         0.480340        -2.334218
 H         3.756548        -0.886813        -1.419175
 H         1.224813        -0.610236         0.251273
