19
Iteration:  4500
 C         2.527079        -1.679667        -3.994833
 C         2.422970        -0.494642        -3.144379
 C         2.345051         0.858556        -3.931382
 C         1.188931         0.370856        -3.021351
 O         0.891780         0.828701        -1.719182
 C         2.272978         0.800888        -0.975043
 C         3.059653        -0.347936        -1.741891
 C         2.088562         0.541076         0.551016
 O         2.914646         0.444007         1.347999
 H         3.566092        -1.837908        -4.374162
 H         2.080595        -2.667796        -3.585283
 H         1.997084        -1.376486        -4.933652
 H         3.160953         1.576581        -3.670333
 H         2.269950         1.038853        -5.003057
 H         0.276416         0.231876        -3.515614
 H         2.630587         1.806671        -1.158060
 H         4.212407        -0.208707        -1.717965
 H         2.683700        -1.285591        -1.196432
 H         0.982394         0.506479         0.855016
