19
Iteration:  2685charge 0 multiplicity 1
 C         2.588655        -1.721769        -3.855597
 C         2.379130        -0.470786        -3.216646
 C         2.106056         0.864768        -4.041484
 C         1.134051         0.423417        -2.883956
 O         1.165710         0.957679        -1.610464
 C         2.484498         0.714174        -1.006477
 C         3.225076        -0.199495        -1.936894
 C         1.979748         0.222272         0.432693
 O         2.650250         0.508160         1.400832
 H         3.586230        -1.755960        -4.502593
 H         2.702811        -2.431543        -2.964459
 H         1.630690        -1.996153        -4.353733
 H         2.548799         1.863735        -3.902613
 H         1.854943         0.622797        -5.024188
 H         0.128021         0.067843        -3.097873
 H         2.875885         1.763359        -0.854472
 H         4.230403         0.340460        -2.173360
 H         3.447156        -1.200365        -1.424659
 H         0.799338         0.024597         0.419036
