19
Iteration:  2465charge 0 multiplicity 1
 C         2.802065        -1.693771        -3.894707
 C         2.458347        -0.407755        -3.181373
 C         2.201996         0.905414        -3.904391
 C         1.074823         0.330535        -2.940538
 O         0.872643         0.800160        -1.572586
 C         2.323548         0.772525        -1.145150
 C         3.046685        -0.365987        -1.806519
 C         2.162404         0.875603         0.497391
 O         2.776716         0.164357         1.257529
 H         3.795839        -1.601726        -4.334594
 H         2.482524        -2.537027        -3.242394
 H         2.113519        -1.773074        -4.767561
 H         2.702794         1.806316        -3.888148
 H         2.074022         0.699844        -4.996030
 H         0.052760        -0.043051        -3.179292
 H         2.761858         1.762946        -1.323751
 H         4.141548        -0.333590        -1.575964
 H         2.811308        -1.324530        -1.207301
 H         1.455278         1.641543         0.723805
