19
Iteration:  2776
 C         2.480742        -1.756028        -3.985038
 C         2.441638        -0.434755        -3.233058
 C         2.153402         0.953498        -3.834541
 C         1.139562         0.402240        -2.922517
 O         1.115860         0.752204        -1.631222
 C         2.440485         0.716085        -1.025479
 C         3.230252        -0.266846        -1.957737
 C         2.131235         0.237967         0.402004
 O         2.591708         0.745267         1.456231
 H         3.476744        -2.135416        -3.990557
 H         1.761106        -2.544076        -3.513760
 H         2.003480        -1.767269        -5.001560
 H         2.700105         1.823364        -3.378462
 H         2.066695         1.079540        -4.914747
 H         0.127672         0.221409        -3.245789
 H         2.944254         1.664355        -0.911581
 H         4.252000         0.125437        -2.026949
 H         3.225585        -1.198562        -1.345942
 H         1.536043        -0.705444         0.472560
