19
Iteration:  1566
 C         2.464744        -1.793359        -3.781066
 C         2.436679        -0.362864        -3.174131
 C         2.023286         0.878213        -4.078835
 C         1.152866         0.368052        -2.918112
 O         1.193712         0.947347        -1.627443
 C         2.514595         0.796120        -1.008579
 C         3.350204         0.005553        -2.043035
 C         2.262102         0.081608         0.402246
 O         2.364221         0.489851         1.533080
 H         3.467017        -2.054969        -4.097274
 H         2.123054        -2.576688        -3.070389
 H         1.691326        -1.897099        -4.658686
 H         2.540585         1.746760        -4.041657
 H         1.552096         0.390596        -4.988926
 H         0.206986        -0.113527        -2.963312
 H         3.020436         1.832749        -0.854740
 H         4.241302         0.570774        -2.357969
 H         3.646947        -0.932651        -1.601958
 H         1.748910        -0.889640         0.036260
