19
Iteration:   279charge 0 multiplicity 1
 C         2.292517        -1.640333        -4.144326
 C         2.457318        -0.475117        -3.256356
 C         2.254414         0.903756        -3.799070
 C         1.178490         0.271680        -2.888142
 O         1.282116         0.834580        -1.550351
 C         2.593354         0.617687        -1.012709
 C         3.300986        -0.400477        -1.873012
 C         2.272074         0.197913         0.415498
 O         2.155632         0.941384         1.425219
 H         2.023035        -2.537241        -3.513925
 H         1.480600        -1.344384        -4.949331
 H         3.226609        -1.894215        -4.791719
 H         2.837472         1.718198        -3.461429
 H         2.009934         1.101444        -4.833964
 H         0.113261         0.251363        -3.060414
 H         3.167716         1.592970        -0.994427
 H         4.330832        -0.117833        -2.147416
 H         3.263610        -1.338679        -1.370193
 H         1.969371        -0.795926         0.495476
