19
Iteration:  3099
 C         2.761814        -1.696792        -3.612727
 C         2.499748        -0.295936        -3.177296
 C         1.998245         0.802203        -4.066011
 C         1.087854         0.358896        -2.931856
 O         0.919516         1.019031        -1.702495
 C         2.277348         0.904584        -1.089402
 C         3.177206        -0.045537        -1.788882
 C         2.041027         0.473241         0.431251
 O         2.915593        -0.080300         1.216770
 H         3.901459        -1.781771        -3.738498
 H         2.575931        -2.416238        -2.779846
 H         2.226554        -2.133520        -4.464499
 H         2.348170         1.787340        -4.190140
 H         1.872921         0.267687        -5.094323
 H         0.117187        -0.141097        -3.196260
 H         2.715497         1.956471        -1.008695
 H         4.284476         0.364421        -1.939327
 H         3.163802        -0.958315        -1.151693
 H         0.937466         0.759892         0.808541
