19
Iteration:  2035charge 0 multiplicity 1
 C         2.491126        -1.732687        -3.792059
 C         2.466261        -0.359445        -3.200511
 C         2.041425         0.778165        -4.100898
 C         1.190400         0.376855        -2.874978
 O         1.186518         1.024161        -1.633339
 C         2.374030         0.691802        -0.958151
 C         3.293325        -0.018250        -1.885739
 C         2.030270         0.075406         0.339995
 O         2.602352         0.542488         1.382876
 H         3.602357        -1.991236        -4.009318
 H         2.411599        -2.582028        -3.140515
 H         1.681394        -1.950148        -4.605957
 H         2.624824         1.743472        -4.009000
 H         1.528353         0.594451        -5.016254
 H         0.285319        -0.134344        -3.153587
 H         3.064058         1.522752        -0.488783
 H         4.130850         0.606017        -2.220772
 H         3.630984        -0.970090        -1.375934
 H         1.398194        -0.893188         0.360068
