19
Iteration:  1521charge 0 multiplicity 1
 C         2.573975        -1.716997        -3.658825
 C         2.356799        -0.386492        -3.087268
 C         2.018225         0.874011        -3.884524
 C         1.051494         0.371022        -2.912979
 O         1.195818         1.053732        -1.643759
 C         2.478395         0.756502        -1.095947
 C         3.346320        -0.110756        -1.967152
 C         2.263566        -0.035933         0.206643
 O         2.427889         0.529578         1.329499
 H         3.647947        -1.834201        -4.000459
 H         2.372658        -2.553058        -3.022416
 H         1.850443        -1.892687        -4.506597
 H         2.537587         1.721375        -3.534287
 H         1.843193         0.623259        -4.972667
 H         0.000646         0.163121        -3.100291
 H         2.820814         1.803326        -0.779494
 H         4.232580         0.405404        -2.341924
 H         3.482944        -0.995693        -1.416836
 H         1.784521        -1.038875         0.166189
