19
Iteration:  1448
 C         2.634980        -1.743394        -3.824398
 C         2.425441        -0.379416        -3.166649
 C         2.079167         0.799404        -4.016751
 C         1.077798         0.319820        -2.901672
 O         1.194261         1.059454        -1.709163
 C         2.394946         0.675694        -0.995267
 C         3.245860        -0.071820        -1.981353
 C         1.960212         0.277375         0.438482
 O         2.697063         0.372010         1.451486
 H         3.442094        -1.829858        -4.473390
 H         2.666290        -2.620624        -3.083917
 H         1.718375        -1.976155        -4.501353
 H         2.493641         1.673971        -3.680327
 H         1.671702         0.614341        -5.054722
 H         0.125856         0.014751        -3.171957
 H         2.849687         1.614488        -0.726577
 H         4.129000         0.548504        -2.246808
 H         3.636845        -1.046937        -1.429814
 H         0.813612         0.314744         0.528607
