19
Iteration:  2619
 C         2.554979        -1.736413        -3.707287
 C         2.445029        -0.348949        -3.060504
 C         2.142735         0.832107        -3.994335
 C         1.206295         0.380386        -2.987861
 O         1.010115         0.999523        -1.709869
 C         2.259199         0.937089        -1.031360
 C         3.196853        -0.196957        -1.778789
 C         2.013080         0.233540         0.342140
 O         2.842288         0.317485         1.260654
 H         3.697404        -2.141948        -3.982912
 H         2.222601        -2.522458        -2.927079
 H         1.979560        -1.807381        -4.680659
 H         2.712525         1.740816        -3.744408
 H         1.782256         0.547330        -4.902170
 H         0.289957         0.064069        -3.438963
 H         2.885733         1.888044        -0.985563
 H         4.223207         0.310806        -1.910203
 H         3.236766        -1.259489        -1.411588
 H         1.137698        -0.354715         0.447543
