19
Iteration:  3969
 C         2.618548        -1.761718        -3.700579
 C         2.447160        -0.348558        -3.106752
 C         2.126126         0.969758        -3.965991
 C         1.140568         0.378911        -2.965669
 O         1.021370         1.028739        -1.750845
 C         2.312593         0.754945        -0.993336
 C         3.099960        -0.254727        -1.784010
 C         2.059175         0.317194         0.376746
 O         2.889077         0.314149         1.205901
 H         3.679231        -2.164797        -3.831437
 H         2.112626        -2.519854        -3.107876
 H         2.287807        -1.780804        -4.713067
 H         2.469901         1.965428        -3.583797
 H         1.861813         0.688860        -5.004248
 H         0.359402        -0.178463        -3.381840
 H         2.689390         1.753099        -0.924314
 H         4.186585        -0.136207        -1.585625
 H         2.799744        -1.257047        -1.428552
 H         0.967151         0.220263         0.610041
