19
Iteration:  2119
 C         2.471047        -1.695434        -3.701731
 C         2.472583        -0.347104        -3.032403
 C         2.039230         0.729481        -4.022827
 C         1.138097         0.293754        -2.901615
 O         1.180770         1.066302        -1.648175
 C         2.378888         0.764737        -1.004911
 C         3.413565        -0.026974        -1.942101
 C         2.100160         0.101337         0.278441
 O         2.530880         0.442712         1.310105
 H         3.436841        -1.766350        -4.223114
 H         2.056481        -2.550916        -3.142831
 H         1.653008        -1.585204        -4.479987
 H         2.755584         1.641680        -3.909387
 H         1.737877         0.334710        -5.042208
 H         0.203757        -0.195123        -3.039319
 H         2.790279         1.720509        -0.532005
 H         4.248341         0.650135        -2.388951
 H         3.968693        -0.811906        -1.478290
 H         1.222648        -0.671751         0.236527
