19
Iteration:  2627charge 0 multiplicity 1
 C         2.539408        -1.697734        -3.748280
 C         2.451516        -0.422099        -3.102302
 C         2.168298         0.803398        -3.995616
 C         1.181642         0.327239        -2.951953
 O         1.044228         1.018393        -1.735637
 C         2.277138         0.964916        -1.016091
 C         3.195950        -0.178608        -1.716895
 C         2.033916         0.269848         0.329516
 O         2.824424         0.307861         1.275735
 H         3.532905        -1.993663        -4.221459
 H         2.160540        -2.466175        -3.139746
 H         1.911288        -1.680275        -4.627706
 H         2.516991         1.795968        -3.851564
 H         1.870867         0.628830        -5.069453
 H         0.190675        -0.087311        -3.156898
 H         2.641128         1.996472        -0.921296
 H         4.218583         0.169926        -1.783529
 H         3.294891        -1.115205        -1.089296
 H         1.218041        -0.526993         0.299496
