19
Iteration:  4030
 C         2.526866        -1.747351        -3.927737
 C         2.436977        -0.383654        -3.148007
 C         2.302123         0.921076        -3.766113
 C         1.173363         0.334903        -3.010571
 O         0.977218         0.835512        -1.696988
 C         2.223521         0.709198        -0.947115
 C         3.149055        -0.273241        -1.782549
 C         1.959162         0.591193         0.486182
 O         2.941463         0.360630         1.168815
 H         3.560352        -2.154306        -4.018841
 H         1.864387        -2.423968        -3.320005
 H         2.062476        -1.661303        -4.961110
 H         2.739539         1.762636        -3.362702
 H         2.211665         1.191228        -4.872454
 H         0.247716        -0.013057        -3.491733
 H         2.674700         1.726075        -1.133549
 H         4.165527         0.160748        -1.991088
 H         3.261093        -1.368895        -1.478054
 H         0.889457         0.552905         0.892104
