19
Iteration:  2849charge 0 multiplicity 1
 C         2.598495        -1.553704        -4.177078
 C         2.447796        -0.498029        -3.102165
 C         2.303748         0.856526        -3.625648
 C         1.047261         0.291413        -2.979023
 O         0.977597         0.864248        -1.667312
 C         2.240144         0.753068        -1.071574
 C         3.069949        -0.475516        -1.745857
 C         2.110245         0.310354         0.411347
 O         2.847726         0.765782         1.323811
 H         3.555903        -1.477393        -4.845798
 H         2.562586        -2.583109        -3.802223
 H         1.748541        -1.363272        -4.877093
 H         2.781221         1.672807        -3.141390
 H         2.457760         0.944362        -4.705565
 H         0.229074        -0.275691        -3.397187
 H         2.881406         1.673071        -1.236665
 H         4.206090        -0.198418        -1.728033
 H         2.858750        -1.409958        -1.163506
 H         1.322541        -0.520724         0.541439
