19
Iteration:  4111charge 0 multiplicity 1
 C         2.652321        -1.643010        -4.038432
 C         2.422329        -0.488317        -3.083897
 C         2.268835         0.847931        -3.746236
 C         1.085434         0.410040        -3.007991
 O         0.950059         1.013160        -1.718659
 C         2.236748         0.649432        -1.008188
 C         3.096263        -0.541027        -1.813215
 C         1.939527         0.486549         0.516575
 O         2.986706         0.538547         1.265939
 H         3.717444        -1.487073        -4.544967
 H         2.633106        -2.703567        -3.769576
 H         1.923152        -1.443460        -4.820869
 H         2.667650         1.793277        -3.195443
 H         2.284395         0.666542        -4.839832
 H         0.022666         0.105571        -3.335340
 H         2.794301         1.633213        -1.063690
 H         4.153590        -0.179711        -1.937623
 H         3.113942        -1.552678        -1.351712
 H         0.909114         0.426131         0.942436
