19
Iteration:   763charge 0 multiplicity 1
 C         2.578084        -1.621621        -4.128170
 C         2.429316        -0.478451        -3.192048
 C         2.256797         0.912496        -3.851969
 C         1.137375         0.428996        -2.939335
 O         1.149907         0.875963        -1.660719
 C         2.423669         0.650825        -1.056492
 C         3.030779        -0.571201        -1.683811
 C         2.033163         0.521305         0.395181
 O         2.667893         0.622820         1.463403
 H         2.876527        -2.655741        -3.725804
 H         1.691630        -1.724624        -4.875707
 H         3.488601        -1.387443        -4.623004
 H         2.631217         1.807348        -3.433394
 H         2.111031         0.890976        -4.936645
 H         0.126570         0.203700        -3.366466
 H         3.193524         1.406050        -1.260564
 H         4.084497        -0.574268        -1.551810
 H         2.697310        -1.579466        -1.323127
 H         0.969832         0.272903         0.405806
