19
Iteration:  2409
 C         2.570664        -1.633084        -3.939704
 C         2.516586        -0.474359        -3.112799
 C         2.244132         0.822574        -3.812177
 C         1.172241         0.283874        -2.870771
 O         0.934426         0.750124        -1.643946
 C         2.292179         0.857464        -1.074216
 C         3.153709        -0.220878        -1.734499
 C         2.083862         0.812236         0.389166
 O         2.773784         0.167370         1.144426
 H         3.650989        -2.033690        -4.059752
 H         2.163592        -2.505617        -3.411569
 H         2.159827        -1.319890        -4.884633
 H         2.838037         1.720409        -3.617781
 H         1.883996         0.709670        -4.776630
 H         0.304320        -0.187376        -3.312925
 H         2.699285         1.890010        -1.266535
 H         4.132045         0.242744        -1.734040
 H         2.970818        -1.152459        -1.050134
 H         1.089252         1.307724         0.625848
