19
Iteration:  3569charge 0 multiplicity 1
 C         2.659690        -1.621163        -3.835691
 C         2.470088        -0.343166        -3.149077
 C         2.237887         0.929670        -3.961084
 C         1.208878         0.299324        -2.991366
 O         0.900716         0.798931        -1.634422
 C         2.184148         0.803439        -1.045678
 C         2.987732        -0.271156        -1.748368
 C         2.049829         0.437146         0.470857
 O         2.968819         0.384295         1.217950
 H         3.621051        -1.799090        -4.298834
 H         2.612409        -2.425439        -3.053096
 H         1.885571        -1.914030        -4.618099
 H         2.725228         1.964759        -3.658110
 H         2.181511         0.680806        -4.994238
 H         0.315111         0.009809        -3.583193
 H         2.774925         1.713713        -1.180867
 H         4.042979         0.092436        -1.674896
 H         2.879371        -1.250771        -1.216023
 H         1.094956        -0.071858         0.727006
