19
Iteration:  1513
 C         2.527918        -1.696450        -3.689939
 C         2.395985        -0.385769        -3.120312
 C         2.041618         0.852150        -3.909514
 C         1.040772         0.326022        -2.857804
 O         1.161860         1.039325        -1.697514
 C         2.511123         0.805100        -1.036637
 C         3.370604        -0.111400        -1.930345
 C         2.185466         0.029751         0.255186
 O         2.451136         0.499769         1.305986
 H         3.487579        -1.783035        -4.135375
 H         2.336848        -2.467573        -2.858193
 H         1.858036        -1.817544        -4.638770
 H         2.456275         1.725362        -3.586421
 H         1.758017         0.814385        -4.976654
 H         0.075512        -0.058679        -2.988321
 H         2.990392         1.753467        -0.723852
 H         4.337654         0.187219        -2.235755
 H         3.729564        -1.053217        -1.435037
 H         1.895647        -1.007410        -0.022837
