19
Iteration:  2536charge 0 multiplicity 1
 C         2.530572        -1.706173        -3.863638
 C         2.493543        -0.352183        -2.994775
 C         2.168062         0.818392        -3.875711
 C         1.211239         0.262304        -2.899097
 O         1.044873         0.853343        -1.766878
 C         2.266633         0.932023        -1.049031
 C         3.161336        -0.150088        -1.683053
 C         1.961018         0.501302         0.433381
 O         2.870234         0.242932         1.119410
 H         3.479210        -1.892345        -4.370745
 H         2.071984        -2.540904        -3.305893
 H         1.733503        -1.516914        -4.633562
 H         2.694240         1.884930        -3.778592
 H         2.153241         0.634373        -4.950280
 H         0.404746        -0.292768        -3.349811
 H         2.727219         1.924172        -1.119213
 H         4.222084         0.002591        -1.695075
 H         3.068787        -1.105240        -1.239149
 H         0.924416         0.430846         0.644413
