19
Iteration:  3030charge 0 multiplicity 1
 C         2.626898        -1.677320        -3.825751
 C         2.421436        -0.394936        -3.081092
 C         2.154408         0.882098        -3.930756
 C         1.144610         0.271337        -2.966276
 O         1.023845         0.825477        -1.601367
 C         2.273039         0.929092        -1.051472
 C         3.173743        -0.071617        -1.823810
 C         2.036389         0.460748         0.393735
 O         2.823993         0.178687         1.219875
 H         3.555952        -1.616026        -4.382638
 H         2.747618        -2.585603        -3.102210
 H         1.806129        -2.043448        -4.485535
 H         2.895844         1.750426        -3.894780
 H         1.827246         0.662520        -4.929873
 H         0.214385        -0.093995        -3.366737
 H         2.675586         1.985707        -1.139239
 H         4.138706         0.413043        -1.981297
 H         3.357546        -0.965133        -1.119172
 H         0.873935         0.365326         0.593961
