19
Iteration:   803
 C         2.551333        -1.715120        -4.037513
 C         2.436900        -0.446399        -3.127990
 C         2.403969         0.951404        -3.806732
 C         1.235736         0.477775        -3.103449
 O         1.017419         0.959526        -1.723547
 C         2.200998         0.613877        -0.967587
 C         2.949614        -0.468231        -1.716483
 C         2.055989         0.259391         0.470301
 O         2.832038         0.696241         1.323164
 H         2.552941        -2.712282        -3.517106
 H         1.608922        -1.937636        -4.594198
 H         3.462941        -1.588313        -4.668647
 H         2.882306         1.722754        -3.185254
 H         2.297355         1.149021        -4.935876
 H         0.223851         0.249368        -3.562555
 H         2.759066         1.595755        -0.972520
 H         4.032852        -0.267002        -1.538293
 H         2.766842        -1.440835        -1.261011
 H         1.432328        -0.581658         0.775835
