19
Iteration:  1337
 C         2.545098        -1.771360        -3.836887
 C         2.411557        -0.411156        -3.146600
 C         2.314724         0.989843        -3.845344
 C         1.158847         0.444340        -3.054651
 O         0.915702         0.767356        -1.651489
 C         2.217218         0.683216        -1.009095
 C         3.131473        -0.276633        -1.809286
 C         2.026166         0.487082         0.479914
 O         2.959608         0.426145         1.229946
 H         3.595969        -1.981223        -3.772646
 H         1.942130        -2.558013        -3.362660
 H         2.232348        -1.698667        -4.949782
 H         2.962709         1.848604        -3.492000
 H         2.240666         1.083555        -4.867606
 H         0.230017         0.144267        -3.709192
 H         2.609426         1.680833        -1.050873
 H         4.060581         0.274546        -1.945237
 H         3.182867        -1.398967        -1.435004
 H         0.903318         0.499974         0.656872
