19
Iteration:   493charge 0 multiplicity 1
 C         2.745966        -1.694200        -3.898254
 C         2.431011        -0.463317        -3.073152
 C         2.317406         0.891041        -3.780461
 C         1.149580         0.343698        -2.975337
 O         0.936778         0.903515        -1.713154
 C         2.257270         0.746190        -1.016493
 C         3.009125        -0.367680        -1.664809
 C         1.996067         0.825177         0.431012
 O         2.833494         0.160295         1.078478
 H         2.254808        -2.521038        -3.408149
 H         2.260218        -1.661689        -4.836661
 H         3.862540        -1.833662        -4.224526
 H         2.892027         1.798010        -3.456300
 H         2.194250         1.019582        -4.831908
 H         0.161582         0.063714        -3.403939
 H         2.849979         1.690258        -1.262365
 H         4.092317        -0.270012        -1.589611
 H         2.678706        -1.294763        -1.255400
 H         1.173294         1.347599         0.810939
