19
Iteration:   361
 C         2.446079        -1.682517        -4.010317
 C         2.467923        -0.428598        -3.190796
 C         2.198509         0.890710        -3.950900
 C         1.172669         0.408774        -2.985671
 O         1.151856         0.901302        -1.731775
 C         2.429340         0.695355        -0.955180
 C         3.270847        -0.325515        -1.808863
 C         2.009330         0.250213         0.450808
 O         2.583209         0.657126         1.500407
 H         1.962244        -2.503931        -3.404898
 H         1.822823        -1.579446        -4.870551
 H         3.500823        -2.045891        -4.322161
 H         2.739994         1.827578        -3.781010
 H         1.980453         0.513558        -5.002740
 H         0.134728         0.172584        -3.176821
 H         2.919408         1.644524        -0.884029
 H         4.324776        -0.094951        -2.022696
 H         3.308923        -1.387044        -1.284741
 H         1.232582        -0.430008         0.531233
