19
Iteration:  4904charge 0 multiplicity 1
 C         2.367775        -1.705048        -3.877651
 C         2.411565        -0.366447        -3.136547
 C         2.286842         0.892935        -4.015870
 C         1.190587         0.366704        -2.982096
 O         1.099464         0.900242        -1.697756
 C         2.286320         0.746804        -0.954871
 C         3.207803        -0.277238        -1.742779
 C         2.087169         0.208420         0.407860
 O         2.735059         0.570195         1.310225
 H         3.334392        -2.109459        -3.804909
 H         1.672935        -2.367567        -3.322453
 H         1.981997        -1.573481        -4.833447
 H         3.011226         1.724589        -3.674569
 H         2.238206         0.800949        -5.110128
 H         0.222133         0.139973        -3.258573
 H         2.831990         1.692423        -1.055311
 H         4.224826         0.260116        -1.790927
 H         3.387920        -1.198703        -1.194943
 H         1.308872        -0.542825         0.530629
