19
Iteration:   160charge 0 multiplicity 1
 C         2.552151        -1.612339        -4.128277
 C         2.427461        -0.408387        -3.184716
 C         2.203641         0.902848        -3.907350
 C         1.186790         0.438216        -3.011514
 O         1.153267         0.798768        -1.681501
 C         2.352133         0.552934        -0.980186
 C         3.080573        -0.549182        -1.771898
 C         2.166275         0.265021         0.565896
 O         2.572751         0.917393         1.468399
 H         2.393340        -2.592767        -3.767793
 H         1.828406        -1.341616        -4.939960
 H         3.536638        -1.662598        -4.691019
 H         2.818602         1.779434        -3.785674
 H         1.931419         0.938678        -4.963266
 H         0.287123         0.092129        -3.480687
 H         2.921358         1.456896        -0.937106
 H         4.130639        -0.180894        -1.712153
 H         2.900349        -1.618778        -1.336729
 H         1.628410        -0.643933         0.714307
