19
Iteration:   424
 C         2.620108        -1.775600        -3.731340
 C         2.453104        -0.373251        -3.125345
 C         2.387018         0.939020        -3.908440
 C         1.196906         0.433208        -3.013517
 O         0.912557         0.914462        -1.769251
 C         2.155190         0.739130        -0.985238
 C         3.020571        -0.323951        -1.726251
 C         1.989505         0.518398         0.460969
 O         2.942520         0.280878         1.142831
 H         2.203261        -2.509127        -3.100955
 H         2.022953        -1.917233        -4.671630
 H         3.737181        -1.888504        -3.994817
 H         3.000497         1.746475        -3.528713
 H         2.199490         1.060510        -5.008523
 H         0.345266         0.193201        -3.625142
 H         2.644001         1.746413        -1.016505
 H         4.024726        -0.003447        -1.688890
 H         2.966448        -1.223141        -1.200736
 H         0.931009         0.522097         0.862633
