19
Iteration:  3788charge 0 multiplicity 1
 C         2.477419        -1.678128        -4.026616
 C         2.455973        -0.466828        -3.117358
 C         2.180481         0.913894        -3.857122
 C         1.197244         0.345410        -2.954757
 O         1.081839         0.902383        -1.615727
 C         2.412508         0.717638        -1.006654
 C         3.217246        -0.267511        -1.844658
 C         2.031394         0.182715         0.380461
 O         2.686116         0.679235         1.372527
 H         3.412216        -2.181269        -4.043182
 H         1.688178        -2.305614        -3.509453
 H         2.154241        -1.644723        -5.122749
 H         2.460771         1.963232        -3.538934
 H         2.020110         0.781178        -4.991410
 H         0.250264        -0.073045        -3.224426
 H         2.824386         1.756702        -0.882688
 H         4.188177         0.066019        -2.143356
 H         3.262102        -1.210783        -1.265010
 H         1.411529        -0.673208         0.402045
