19
Iteration:  2163charge 0 multiplicity 1
 C         2.620886        -1.826926        -3.628099
 C         2.416575        -0.418338        -3.181854
 C         1.955871         0.899213        -4.083801
 C         1.152172         0.362541        -2.921038
 O         1.114910         1.110003        -1.747367
 C         2.465706         0.863804        -1.041730
 C         3.286297        -0.062624        -1.987193
 C         2.110707         0.110436         0.390140
 O         2.567025         0.331207         1.498314
 H         3.535759        -2.076193        -4.184095
 H         2.482748        -2.407288        -2.705713
 H         1.784037        -2.237315        -4.290284
 H         2.703196         1.863562        -4.058559
 H         1.645579         0.567455        -5.085020
 H         0.148014         0.110484        -3.191059
 H         3.100140         1.782881        -0.868164
 H         4.313912         0.457541        -2.163077
 H         3.580207        -0.928707        -1.428345
 H         1.315408        -0.581008         0.068275
