19
Iteration:   622
 C         2.679824        -1.749896        -3.801176
 C         2.424416        -0.442418        -3.117605
 C         2.361151         0.865162        -3.909950
 C         1.160425         0.457856        -3.054012
 O         1.022667         1.088991        -1.768468
 C         2.126620         0.795347        -1.003937
 C         2.982039        -0.315101        -1.670214
 C         1.945814         0.352006         0.479633
 O         2.944721         0.319234         1.160027
 H         2.625546        -2.572838        -3.125938
 H         2.020165        -1.855190        -4.626316
 H         3.753478        -1.823900        -4.073625
 H         2.885425         1.777602        -3.548336
 H         2.140938         0.811153        -4.979332
 H         0.126393         0.164192        -3.424349
 H         2.671504         1.737793        -0.903608
 H         4.046497        -0.255335        -1.527261
 H         2.723593        -1.337502        -1.244569
 H         0.991956         0.013754         0.767813
