19
Iteration:  2292charge 0 multiplicity 1
 C         2.584546        -1.800117        -3.648290
 C         2.435361        -0.397928        -3.120416
 C         2.100623         0.838716        -3.928978
 C         1.111302         0.310000        -2.993266
 O         1.072528         1.040340        -1.787349
 C         2.296483         0.893135        -1.055016
 C         3.278124        -0.040892        -1.878665
 C         2.017637         0.293860         0.412606
 O         2.787828         0.204917         1.303555
 H         3.573436        -2.004599        -3.956218
 H         2.429653        -2.586540        -2.825987
 H         1.819950        -1.791134        -4.428746
 H         2.759067         1.681945        -3.454649
 H         2.063435         0.758365        -5.010424
 H         0.112953         0.031751        -3.275638
 H         2.644297         1.937322        -0.948591
 H         4.144071         0.611739        -2.201600
 H         3.488524        -0.908215        -1.236053
 H         0.935696        -0.078618         0.279650
