19
Iteration:  4959charge 0 multiplicity 1
 C         2.563329        -1.738968        -3.897199
 C         2.383225        -0.459025        -3.127899
 C         2.269453         0.928068        -3.817080
 C         1.146100         0.442317        -2.999746
 O         1.081251         0.929837        -1.716722
 C         2.346942         0.715108        -0.961434
 C         3.060198        -0.408233        -1.861349
 C         2.010811         0.383316         0.450441
 O         2.824740         0.530152         1.276905
 H         3.494304        -1.793515        -4.396986
 H         2.420193        -2.659181        -3.322715
 H         1.870789        -1.814611        -4.691195
 H         2.632922         1.859549        -3.361115
 H         2.141378         0.962823        -4.916344
 H         0.224391         0.181607        -3.435456
 H         3.004013         1.547259        -1.064456
 H         4.196549        -0.287011        -1.946847
 H         2.924326        -1.286678        -1.270327
 H         0.862348         0.323882         0.675833
