19
Iteration:  3886charge 0 multiplicity 1
 C         2.444067        -1.738168        -3.843960
 C         2.459784        -0.412848        -3.163740
 C         2.165831         0.816300        -3.952972
 C         1.174635         0.301784        -3.010916
 O         1.099879         0.989961        -1.675629
 C         2.401407         0.822053        -1.041907
 C         3.251581        -0.083619        -1.820479
 C         1.985432         0.233835         0.408808
 O         2.732730         0.399583         1.388626
 H         3.261271        -1.867284        -4.479222
 H         2.385364        -2.572131        -3.082138
 H         1.474311        -1.874571        -4.412086
 H         2.733649         1.686188        -3.542066
 H         1.986116         0.959503        -4.955256
 H         0.270873        -0.140613        -3.441185
 H         2.845075         1.844162        -0.887517
 H         4.169903         0.451531        -1.963020
 H         3.575219        -0.983617        -1.253629
 H         1.010724        -0.265452         0.373970
