19
Iteration:  4039
 C         2.521250        -1.748235        -3.882713
 C         2.476827        -0.380905        -3.097626
 C         2.261082         1.049612        -3.823452
 C         1.174835         0.369424        -3.064884
 O         0.969613         0.771968        -1.670337
 C         2.251695         0.697166        -1.019223
 C         3.175672        -0.314910        -1.776484
 C         1.949810         0.562902         0.466954
 O         2.939074         0.385754         1.180567
 H         3.441837        -2.169138        -4.197703
 H         2.009933        -2.528482        -3.230267
 H         1.976490        -1.575482        -4.885409
 H         2.590395         1.851498        -3.259895
 H         2.216301         1.012546        -4.931642
 H         0.237763        -0.150772        -3.428929
 H         2.824742         1.637878        -0.927068
 H         4.263956        -0.206362        -1.784391
 H         2.848997        -1.295342        -1.305216
 H         0.947279         0.817375         0.813208
