19
Iteration:  1453
 C         2.569572        -1.733550        -3.832757
 C         2.443530        -0.398880        -3.161434
 C         2.058529         0.789510        -4.088715
 C         1.110909         0.307260        -2.888770
 O         1.192944         1.045496        -1.684788
 C         2.395837         0.703713        -0.985978
 C         3.277277        -0.099500        -1.982986
 C         2.006758         0.278748         0.466354
 O         2.636456         0.371722         1.466455
 H         3.560331        -1.712938        -4.471495
 H         2.668896        -2.568733        -3.189160
 H         1.739012        -1.905898        -4.422247
 H         2.491556         1.916297        -3.808956
 H         1.897902         0.638194        -5.153419
 H         0.056782        -0.137402        -3.102253
 H         3.012787         1.633325        -0.775602
 H         4.009493         0.655520        -2.361525
 H         3.631835        -0.919192        -1.461623
 H         0.937063         0.295982         0.599415
