19
Iteration:  2648
 C         2.501952        -1.752796        -3.921161
 C         2.441257        -0.369631        -3.042615
 C         2.122296         0.759251        -3.888183
 C         1.171871         0.200099        -2.939216
 O         1.096231         1.099897        -1.762330
 C         2.351943         0.949884        -1.037194
 C         3.193411        -0.089125        -1.756163
 C         2.082608         0.236475         0.366633
 O         2.742213         0.353335         1.344367
 H         3.326645        -1.894673        -4.595078
 H         2.393929        -2.615862        -3.378907
 H         1.772863        -1.762519        -4.688450
 H         2.509215         1.706399        -3.587757
 H         2.232178         0.463811        -4.998589
 H         0.228457        -0.298243        -3.159391
 H         2.877632         1.895561        -0.905945
 H         4.189719         0.256461        -1.753828
 H         3.264459        -1.118493        -1.386575
 H         1.032133        -0.343949         0.421303
