19
Iteration:   635
 C         2.677903        -1.756528        -3.690878
 C         2.413373        -0.353889        -3.069316
 C         2.418838         0.922403        -3.868499
 C         1.195872         0.409589        -3.041857
 O         0.950136         1.074062        -1.798845
 C         2.163221         0.801154        -0.931410
 C         2.854786        -0.352217        -1.734827
 C         1.952278         0.303310         0.472426
 O         2.984620         0.332090         1.059830
 H         2.293109        -2.539586        -3.115908
 H         2.183152        -1.976524        -4.568845
 H         3.826551        -1.695210        -4.097099
 H         2.983492         1.767121        -3.685448
 H         2.399887         0.670828        -4.943613
 H         0.263413         0.111559        -3.697312
 H         2.931214         1.602239        -0.801352
 H         3.886768        -0.042374        -1.789498
 H         2.747625        -1.255393        -1.235669
 H         1.036155        -0.079478         0.784915
