19
Iteration:  4964charge 0 multiplicity 1
 C         2.568980        -1.674101        -3.897773
 C         2.387056        -0.469895        -3.163075
 C         2.278986         0.874562        -3.822602
 C         1.128657         0.445587        -2.966256
 O         1.085781         0.953739        -1.695864
 C         2.286176         0.690278        -0.994781
 C         3.101426        -0.447862        -1.839466
 C         1.965944         0.392766         0.439172
 O         2.865836         0.540493         1.275503
 H         3.571974        -1.798952        -4.468242
 H         2.506253        -2.550923        -3.219981
 H         1.793226        -1.779170        -4.753142
 H         2.677390         1.784250        -3.370962
 H         2.231867         0.867953        -4.887810
 H         0.123944         0.246640        -3.517633
 H         2.984171         1.659203        -0.910759
 H         4.136439        -0.211756        -1.863422
 H         2.858508        -1.437062        -1.306775
 H         0.911941         0.321064         0.623926
