19
Iteration:  1044charge 0 multiplicity 1
 C         2.513714        -1.805171        -3.707789
 C         2.463358        -0.354549        -3.120847
 C         2.267753         1.021293        -3.875798
 C         1.216683         0.390084        -3.011281
 O         1.006971         0.863764        -1.713083
 C         2.266757         0.827500        -1.024076
 C         3.073373        -0.222458        -1.819180
 C         1.965440         0.391981         0.371372
 O         2.928368         0.277002         1.178384
 H         3.134698        -1.891676        -4.602687
 H         3.150638        -2.317943        -2.955500
 H         1.490484        -2.339141        -3.777238
 H         2.697052         1.909866        -3.393102
 H         1.963853         1.022610        -4.887628
 H         0.239273         0.092370        -3.388881
 H         2.648272         1.825983        -1.033569
 H         4.138072         0.062517        -1.985614
 H         3.187908        -1.226316        -1.209504
 H         0.809796         0.362220         0.692443
