19
Iteration:  1410charge 0 multiplicity 1
 C         2.655319        -1.730238        -3.716820
 C         2.431498        -0.382688        -3.079100
 C         2.172317         0.813519        -3.943985
 C         1.111558         0.335206        -2.986532
 O         0.991991         1.031907        -1.696258
 C         2.290677         0.906296        -1.026983
 C         3.084710        -0.118091        -1.712238
 C         2.074973         0.290766         0.280925
 O         2.886741         0.233079         1.217002
 H         3.743325        -1.820313        -4.137279
 H         2.483811        -2.533906        -3.034706
 H         1.899739        -1.768455        -4.459912
 H         2.550815         1.889581        -3.876562
 H         2.053519         0.707382        -4.991305
 H         0.123825        -0.148720        -3.279479
 H         2.769272         1.939394        -0.962310
 H         4.146626         0.103570        -1.793556
 H         2.945516        -1.066064        -1.291876
 H         0.998984        -0.178073         0.371499
