19
Iteration:   890charge 0 multiplicity 1
 C         2.523886        -1.705475        -4.038185
 C         2.408991        -0.455588        -3.143143
 C         2.245094         0.948740        -3.904901
 C         1.176093         0.352936        -3.000707
 O         1.091413         0.924027        -1.731096
 C         2.333225         0.734621        -0.978328
 C         3.119007        -0.381148        -1.747357
 C         1.965226         0.410562         0.503126
 O         2.802103         0.490926         1.405968
 H         1.542831        -2.141162        -4.052375
 H         2.916189        -1.465996        -5.034513
 H         3.334914        -2.419328        -3.681136
 H         2.752365         1.920176        -3.712845
 H         2.329167         0.855907        -5.033710
 H         0.190761         0.084835        -3.428551
 H         2.887834         1.687608        -0.892579
 H         4.204508        -0.026800        -1.910022
 H         3.107691        -1.420360        -1.207800
 H         0.804701         0.172863         0.538192
