19
Iteration:   950
 O         4.284749         2.727241        -2.675116
 C         3.038487         2.369117        -2.286002
 C         2.065435         2.594825        -3.418211
 C         2.630937         1.198247        -3.004175
 C         1.723618         0.522712        -2.154712
 C         1.414556         1.276080        -0.980857
 C         2.520371         2.324338        -0.892237
 C         1.401242         0.455807         0.268244
 O         0.443099         0.023490         0.941645
 H         4.261299         3.716758        -2.830164
 H         0.931812         2.717576        -3.404956
 H         2.524858         3.071082        -4.333887
 H         3.306152         0.688393        -3.615364
 H         0.825480         0.115754        -2.785250
 H         2.168416        -0.458000        -1.876085
 H         0.345764         1.687291        -1.171988
 H         2.115707         3.350020        -0.613449
 H         3.395511         1.909695        -0.338315
 H         2.461687         0.287282         0.653416
