19
Iteration:  2069
 O         4.356769         2.868584        -2.528007
 C         3.080244         2.344449        -2.299860
 C         1.989404         2.477512        -3.443238
 C         2.728301         1.141748        -3.130652
 C         1.734791         0.306573        -2.267782
 C         1.335192         1.286596        -1.037268
 C         2.461888         2.363676        -0.841074
 C         1.363831         0.521446         0.298848
 O         0.482098         0.178119         0.999729
 H         4.432077         3.385664        -3.388929
 H         0.828544         2.434589        -3.271170
 H         2.277752         2.914981        -4.455148
 H         3.453097         0.613200        -3.837017
 H         0.828544        -0.023787        -2.725893
 H         2.063774        -0.614696        -1.817261
 H         0.310109         1.845653        -1.106828
 H         1.912386         3.253195        -0.483637
 H         3.256026         1.924325        -0.072601
 H         2.415622         0.219085         0.601030
