19
Iteration:  2760
 O         4.418956         2.859353        -2.520113
 C         3.083489         2.394461        -2.466376
 C         2.167174         2.457091        -3.599406
 C         2.534339         1.077234        -3.085133
 C         1.686932         0.323940        -2.084703
 C         1.369758         1.286834        -0.872947
 C         2.476320         2.389087        -1.034674
 C         1.326345         0.630247         0.473551
 O         0.439875        -0.031667         0.924665
 H         4.353133         3.811943        -2.724745
 H         1.226286         2.996289        -3.301654
 H         2.490477         2.826139        -4.600899
 H         3.030704         0.552894        -3.936442
 H         0.677343         0.118763        -2.569738
 H         2.386569        -0.499381        -1.896874
 H         0.372753         1.640611        -1.106488
 H         2.113003         3.331342        -0.750204
 H         3.339268         2.162258        -0.405304
 H         2.058887         1.094971         1.189335
