19
Iteration:   326
 O         4.228683         3.097312        -2.543811
 C         3.082800         2.368703        -2.452587
 C         1.942331         2.463373        -3.375821
 C         2.637482         1.144870        -3.198921
 C         1.912414         0.190298        -2.114590
 C         1.381126         1.228509        -0.992572
 C         2.653065         2.166738        -0.969745
 C         1.295879         0.471558         0.288051
 O         0.359721         0.330861         1.002985
 H         4.585648         3.106011        -1.656332
 H         0.993898         2.709044        -3.212580
 H         2.112657         3.089946        -4.123052
 H         3.026691         0.614915        -4.104075
 H         1.072012        -0.445689        -2.589314
 H         2.665944        -0.587419        -1.794010
 H         0.371796         1.743173        -1.194830
 H         2.644478         3.169647        -0.482681
 H         3.490784         1.551303        -0.491507
 H         2.270139        -0.192754         0.424009
