19
Iteration:  4190
 O         4.413321         2.934729        -2.549989
 C         3.081599         2.405402        -2.446191
 C         2.155121         2.485119        -3.653051
 C         2.651564         1.139165        -3.205206
 C         1.825474         0.236535        -2.142845
 C         1.347327         1.196002        -0.932300
 C         2.345754         2.398971        -0.979593
 C         1.289262         0.434708         0.436050
 O         0.380461         0.216654         1.196008
 H         4.312352         3.877365        -2.640008
 H         1.053320         2.685655        -3.651192
 H         2.749933         2.780957        -4.597900
 H         3.228807         0.525910        -3.867811
 H         1.058017        -0.331942        -2.685678
 H         2.450153        -0.553723        -1.721119
 H         0.354343         1.448511        -1.216126
 H         1.800887         3.329813        -0.889593
 H         3.169426         2.401221        -0.257326
 H         2.287151        -0.132257         0.610944
