19
Iteration:  1008charge 0 multiplicity 1
 O         4.346297         2.931680        -2.479813
 C         3.060845         2.321680        -2.446680
 C         2.037993         2.656934        -3.401499
 C         2.504825         1.149817        -3.213396
 C         1.708648         0.255620        -2.209377
 C         1.501579         1.300148        -0.810751
 C         2.586160         2.304595        -1.009579
 C         1.433867         0.420308         0.398896
 O         0.322379         0.091204         0.897092
 H         4.400129         3.392433        -3.329269
 H         1.096998         2.953466        -2.994706
 H         2.365291         3.134370        -4.335667
 H         3.082248         0.634951        -4.014515
 H         0.795046        -0.083706        -2.607901
 H         2.392050        -0.562613        -1.825071
 H         0.482448         1.658375        -0.860229
 H         2.329889         3.333590        -0.683738
 H         3.471169         2.173807        -0.300123
 H         2.392742         0.087641         0.916675
