19
Iteration:  3934charge 0 multiplicity 1
 O         4.398352         3.040916        -2.561881
 C         3.164432         2.351851        -2.407635
 C         1.930177         2.364207        -3.353272
 C         2.603134         1.037030        -2.999076
 C         1.829914         0.214786        -2.084989
 C         1.350960         1.180535        -1.044287
 C         2.576994         2.415138        -0.982273
 C         1.333904         0.543573         0.303891
 O         0.332745         0.256473         0.893302
 H         4.334052         3.597861        -3.314463
 H         1.053708         2.788054        -3.016982
 H         2.141861         2.732222        -4.373492
 H         3.273834         0.593034        -3.739037
 H         1.064826        -0.455401        -2.546644
 H         2.475801        -0.408110        -1.453550
 H         0.314047         1.682152        -1.293583
 H         2.009833         3.202097        -0.596970
 H         3.406377         2.172837        -0.339410
 H         2.271941         0.058699         0.515974
