19
Iteration:  4354charge 0 multiplicity 1
 O         4.351825         3.009325        -2.518406
 C         3.066258         2.306553        -2.355336
 C         1.928893         2.492903        -3.396077
 C         2.647346         1.059093        -3.116267
 C         1.955137         0.157897        -2.173548
 C         1.386627         1.106238        -1.058496
 C         2.434669         2.231580        -0.938103
 C         1.382273         0.482220         0.306793
 O         0.361872         0.543553         0.972326
 H         4.234090         3.994832        -2.501573
 H         0.860285         2.381219        -2.929864
 H         2.124032         2.943808        -4.354256
 H         3.353027         0.635758        -3.976508
 H         1.172419        -0.492681        -2.627573
 H         2.587411        -0.667185        -1.826793
 H         0.485861         1.403251        -1.515783
 H         2.095405         3.217243        -0.573089
 H         3.279045         1.830905        -0.279543
 H         2.291628        -0.114259         0.429343
