19
Iteration:  3762
 O         4.259432         3.012902        -2.342528
 C         3.059277         2.364919        -2.419740
 C         2.157650         2.477196        -3.625964
 C         2.663071         1.098099        -3.242758
 C         1.883351         0.221454        -2.279155
 C         1.354445         1.128292        -1.031826
 C         2.354650         2.259475        -1.083773
 C         1.352743         0.354334         0.485938
 O         0.428124         0.501620         1.216674
 H         4.432296         3.555918        -3.168814
 H         1.124414         2.786001        -3.424477
 H         2.540082         2.973815        -4.469614
 H         3.209882         0.653589        -4.020381
 H         1.097921        -0.324093        -2.829380
 H         2.620387        -0.526448        -1.996165
 H         0.349108         1.417729        -1.103417
 H         1.956152         3.211309        -0.605658
 H         3.154595         1.676873        -0.366778
 H         2.127536        -0.484758         0.714444
