19
Iteration:  1572charge 0 multiplicity 1
 O         4.427829         2.972615        -2.567572
 C         3.094304         2.386257        -2.400711
 C         2.058157         2.561892        -3.396632
 C         2.448617         1.117597        -3.160455
 C         1.597335         0.428953        -2.204211
 C         1.470608         1.277646        -0.865807
 C         2.604328         2.385031        -0.898311
 C         1.414109         0.311055         0.371330
 O         0.389370         0.043207         0.919120
 H         4.411321         2.977614        -3.555968
 H         1.101070         3.042738        -3.172995
 H         2.550440         2.997797        -4.225115
 H         2.916889         0.508830        -3.901483
 H         0.677055         0.193513        -2.711520
 H         2.029916        -0.547863        -1.921119
 H         0.425986         1.798445        -0.912592
 H         2.202110         3.350499        -0.470442
 H         3.454687         1.864484        -0.327861
 H         2.426192        -0.058631         0.568399
