19
Iteration:  4586charge 0 multiplicity 1
 O         4.341376         2.948087        -2.595824
 C         3.018234         2.401619        -2.395084
 C         2.103932         2.367519        -3.713750
 C         2.564188         1.057402        -3.049922
 C         1.812691         0.288530        -2.044002
 C         1.469105         1.272049        -0.874621
 C         2.569589         2.374831        -0.897455
 C         1.329560         0.586397         0.387971
 O         0.322449         0.142258         0.917004
 H         4.172423         3.885222        -2.689855
 H         1.018141         2.764664        -3.673155
 H         2.584584         2.583506        -4.639809
 H         3.244008         0.540616        -3.717099
 H         0.852578        -0.230787        -2.356922
 H         2.369293        -0.621118        -1.592286
 H         0.464441         1.579188        -1.168382
 H         2.060087         3.418876        -0.600754
 H         3.434977         2.253906        -0.237436
 H         2.286677         0.201362         0.909145
