19
Iteration:  1447charge 0 multiplicity 1
 O         4.258378         2.872751        -2.601281
 C         2.981002         2.380585        -2.331151
 C         1.940929         2.596724        -3.306311
 C         2.580706         1.201377        -3.151053
 C         1.812549         0.313456        -2.258841
 C         1.465320         1.301149        -1.017644
 C         2.660339         2.183023        -0.892175
 C         1.379857         0.332355         0.204616
 O         0.401649         0.293461         1.009099
 H         4.435680         3.498151        -1.900636
 H         0.849775         2.726558        -3.035047
 H         2.286391         2.905551        -4.351195
 H         3.310719         0.886170        -3.901166
 H         0.850675        -0.217458        -2.476963
 H         2.457550        -0.359470        -1.863360
 H         0.529933         1.810858        -1.061415
 H         2.679509         3.123319        -0.380495
 H         3.478420         1.665450        -0.473035
 H         2.224114        -0.395173         0.275946
