19
Iteration:   936charge 0 multiplicity 1
 O         4.395453         2.837794        -2.730408
 C         3.073364         2.412834        -2.309684
 C         2.083096         2.541811        -3.426903
 C         2.620234         1.193052        -3.067191
 C         1.618559         0.300829        -2.251207
 C         1.364561         1.296371        -0.899798
 C         2.482722         2.356201        -0.871444
 C         1.419488         0.464093         0.326350
 O         0.437414         0.028688         0.938475
 H         4.551290         3.709401        -2.387657
 H         1.079992         2.808760        -3.091991
 H         2.451559         3.005092        -4.282304
 H         3.417221         0.709259        -3.712916
 H         0.609148         0.320680        -2.699212
 H         1.985076        -0.687458        -2.036524
 H         0.420148         1.806976        -0.931997
 H         2.079924         3.263421        -0.471045
 H         3.192619         2.125095        -0.126573
 H         2.463066         0.283732         0.732589
