19
Iteration:  4127charge 0 multiplicity 1
 O         4.362257         2.957036        -2.495143
 C         3.094451         2.327222        -2.366238
 C         2.048833         2.329154        -3.494278
 C         2.659122         1.068764        -3.033000
 C         1.733830         0.289561        -2.107321
 C         1.302423         1.240580        -1.066818
 C         2.480582         2.425020        -1.006409
 C         1.401903         0.575278         0.359209
 O         0.423646         0.191981         0.927263
 H         4.241307         3.884425        -2.660030
 H         1.015447         2.589231        -3.300494
 H         2.182805         2.627280        -4.556919
 H         3.328669         0.578351        -3.768878
 H         0.921521        -0.313203        -2.595942
 H         2.492212        -0.566827        -1.837796
 H         0.348975         1.809208        -1.097255
 H         2.095196         3.417395        -0.629096
 H         3.210643         2.157168        -0.229371
 H         2.454266         0.366506         0.673390
