19
Iteration:  2720
 O         4.318984         2.829714        -2.619504
 C         3.024520         2.441748        -2.418576
 C         2.116660         2.412696        -3.597321
 C         2.627555         1.082075        -3.029635
 C         1.746745         0.403954        -2.106010
 C         1.417671         1.314103        -0.850402
 C         2.537052         2.451625        -0.934129
 C         1.362513         0.531312         0.465974
 O         0.350037         0.007206         0.846946
 H         4.505433         3.580679        -3.209764
 H         1.109588         2.805843        -3.374799
 H         2.496681         2.759362        -4.621335
 H         3.422315         0.384333        -3.473823
 H         0.841371         0.168802        -2.588439
 H         2.065510        -0.562581        -1.704871
 H         0.374928         1.726533        -0.893101
 H         2.204455         3.486573        -0.546158
 H         3.448638         2.152742        -0.277426
 H         2.347927         0.450134         1.019713
