19
Iteration:  2441charge 0 multiplicity 1
 O         4.305719         2.988842        -2.423901
 C         2.972301         2.345605        -2.396042
 C         2.194209         2.561857        -3.588864
 C         2.662003         1.136507        -3.165321
 C         1.813179         0.255327        -2.225447
 C         1.392287         1.111232        -1.003467
 C         2.330695         2.280281        -1.102129
 C         1.317953         0.325658         0.394485
 O         0.459323         0.417859         1.236807
 H         4.601587         2.947342        -3.370760
 H         1.106061         2.789461        -3.604865
 H         2.758182         3.064808        -4.289477
 H         3.219464         0.468129        -3.857208
 H         0.994070        -0.209092        -2.763326
 H         2.462274        -0.530643        -1.870502
 H         0.427377         1.619872        -1.175015
 H         2.037887         3.264042        -0.804486
 H         3.267002         2.104555        -0.461176
 H         2.207260        -0.209959         0.582012
