19
Iteration:  3377charge 0 multiplicity 1
 O         4.348173         2.850505        -2.676856
 C         2.998349         2.463244        -2.361025
 C         2.075932         2.406530        -3.563119
 C         2.587643         1.143177        -2.962444
 C         1.835401         0.315484        -2.038092
 C         1.493371         1.346483        -0.907156
 C         2.492234         2.410379        -0.949742
 C         1.374155         0.455704         0.393719
 O         0.298118         0.110249         0.852989
 H         4.321818         3.834248        -2.657034
 H         1.013374         2.705267        -3.509041
 H         2.616091         2.490580        -4.587563
 H         3.214791         0.618795        -3.619395
 H         0.938481        -0.158351        -2.492078
 H         2.384149        -0.542134        -1.579205
 H         0.433638         1.645221        -1.121661
 H         2.167617         3.377307        -0.588285
 H         3.384095         2.169474        -0.351219
 H         2.413201        -0.003612         0.669952
