19
Iteration:  3953charge 0 multiplicity 1
 O         4.314246         2.985247        -2.575255
 C         3.115714         2.393247        -2.425879
 C         2.010454         2.457302        -3.449215
 C         2.618295         1.037108        -3.075368
 C         1.912323         0.176671        -2.001002
 C         1.502268         1.347746        -0.941600
 C         2.528803         2.340540        -0.960121
 C         1.290498         0.463596         0.302430
 O         0.271289         0.237272         0.902050
 H         4.106373         3.567019        -3.310734
 H         0.948676         2.587932        -3.245849
 H         2.339668         2.809143        -4.411120
 H         3.091386         0.554724        -3.843626
 H         0.964520        -0.163668        -2.326719
 H         2.599390        -0.611637        -1.732328
 H         0.418568         1.554537        -1.121796
 H         2.217346         3.421228        -0.755711
 H         3.483482         2.149143        -0.322744
 H         2.237196        -0.016468         0.784651
