19
Iteration:   794
 O         4.265256         2.886364        -2.478559
 C         2.968380         2.545236        -2.330842
 C         2.021888         2.516808        -3.531327
 C         2.509862         1.185086        -3.117484
 C         1.745059         0.295887        -2.213123
 C         1.451804         1.191203        -0.970753
 C         2.669213         2.142655        -0.962953
 C         1.406016         0.400409         0.278158
 O         0.410788         0.299813         1.000772
 H         4.342899         3.824483        -2.455269
 H         1.046028         2.764172        -3.450838
 H         2.468864         3.031987        -4.376354
 H         3.405433         0.825952        -3.657556
 H         0.797720        -0.153507        -2.675192
 H         2.404791        -0.512179        -1.815533
 H         0.502793         1.629624        -1.012473
 H         2.531070         2.924719        -0.189798
 H         3.708556         1.687670        -0.709676
 H         2.218061        -0.321865         0.500636
