19
Iteration:  3819
 O         4.311878         2.882365        -2.509571
 C         3.043982         2.363326        -2.295349
 C         2.038355         2.374923        -3.483127
 C         2.765998         1.158609        -3.039764
 C         1.777999         0.216575        -2.158648
 C         1.256860         1.178738        -1.095344
 C         2.383054         2.341128        -0.951780
 C         1.392494         0.421105         0.180629
 O         0.520860         0.457097         1.020620
 H         4.240774         3.828303        -2.506382
 H         0.957912         2.276171        -3.364163
 H         2.405811         2.995541        -4.358655
 H         3.530186         0.547341        -3.581214
 H         1.057854        -0.337883        -2.721865
 H         2.497432        -0.479718        -1.719461
 H         0.223575         1.581383        -1.061189
 H         1.687343         3.228441        -0.697905
 H         3.225172         2.135653        -0.141513
 H         2.465132         0.148547         0.428655
