19
Iteration:  2519charge 0 multiplicity 1
 O         4.336832         3.028208        -2.483100
 C         3.039459         2.394581        -2.390778
 C         2.078148         2.475787        -3.563671
 C         2.557312         1.155370        -3.225314
 C         1.827440         0.173259        -2.179877
 C         1.422333         1.039596        -1.030401
 C         2.480951         2.185215        -0.997763
 C         1.340585         0.459714         0.384633
 O         0.364103         0.456651         1.160436
 H         4.225545         3.981371        -2.736274
 H         1.201013         3.064215        -3.504023
 H         2.820451         2.750466        -4.377521
 H         3.361105         0.630648        -3.793904
 H         1.089171        -0.348599        -2.671324
 H         2.504707        -0.587547        -1.879738
 H         0.468509         1.554236        -1.324283
 H         2.150690         3.130161        -0.586210
 H         3.241240         1.699299        -0.278841
 H         2.278428        -0.222182         0.692912
