19
Iteration:  1763
 O         4.379546         3.061869        -2.471327
 C         3.131234         2.322182        -2.345652
 C         1.966647         2.576487        -3.315937
 C         2.464663         1.107897        -3.201798
 C         1.713035         0.278722        -2.181905
 C         1.451947         1.246014        -0.981555
 C         2.654843         2.254996        -0.874336
 C         1.364358         0.382390         0.250727
 O         0.376380         0.245898         0.901937
 H         4.617875         2.835389        -3.362492
 H         0.920160         2.912604        -2.892973
 H         2.209853         2.874668        -4.322401
 H         2.667571         0.573609        -4.125378
 H         0.732778        -0.181415        -2.456090
 H         2.350328        -0.640406        -2.015797
 H         0.469613         1.731590        -1.051993
 H         2.423146         3.280101        -0.635836
 H         3.576126         1.807171        -0.310951
 H         2.494579        -0.128262         0.428107
