19
Iteration:  3671charge 0 multiplicity 1
 O         4.307111         3.058619        -2.502243
 C         3.026805         2.465268        -2.479629
 C         2.100052         2.538508        -3.659723
 C         2.569839         1.075761        -3.175004
 C         1.927287         0.181484        -2.166692
 C         1.430134         1.035713        -0.973183
 C         2.521933         2.195768        -0.906198
 C         1.267194         0.320662         0.406338
 O         0.322456         0.477903         1.154719
 H         4.282831         3.915715        -2.889124
 H         1.119277         3.044598        -3.650451
 H         2.741334         2.868086        -4.536363
 H         3.383297         0.451569        -3.678869
 H         1.050671        -0.218744        -2.758184
 H         2.459693        -0.674976        -1.769356
 H         0.525481         1.424672        -1.246147
 H         2.051487         3.111253        -0.589231
 H         3.493649         1.854032        -0.306446
 H         2.209932        -0.105826         0.774742
