19
Iteration:  1017charge 0 multiplicity 1
 O         4.366298         2.930080        -2.549090
 C         3.037786         2.350299        -2.327613
 C         2.045069         2.598574        -3.420238
 C         2.474551         1.176411        -3.188733
 C         1.771627         0.335535        -2.240230
 C         1.526222         1.215369        -0.885574
 C         2.578896         2.285280        -0.907842
 C         1.368672         0.473356         0.386917
 O         0.359872         0.100432         0.899211
 H         4.337263         3.205312        -3.479239
 H         1.068365         2.815885        -2.989946
 H         2.203098         3.144453        -4.426908
 H         3.263965         0.694961        -3.693237
 H         0.681013         0.000135        -2.408491
 H         2.267523        -0.647562        -2.191258
 H         0.517659         1.724004        -1.016494
 H         2.147292         3.283032        -0.589390
 H         3.443819         1.847192        -0.361768
 H         2.335884         0.227305         0.888469
