19
Iteration:  1127
 O         4.318174         2.886072        -2.649396
 C         3.079326         2.403087        -2.286592
 C         1.961800         2.529876        -3.407023
 C         2.568532         1.270183        -3.119238
 C         1.852789         0.291551        -2.289404
 C         1.454795         1.183901        -0.989659
 C         2.633159         2.232299        -0.840120
 C         1.355206         0.454211         0.374744
 O         0.293339         0.190373         0.964276
 H         4.199574         3.743113        -3.085515
 H         0.929444         2.684553        -3.018661
 H         2.250802         3.071572        -4.288494
 H         3.361546         1.109146        -3.931605
 H         0.849695        -0.151952        -2.673015
 H         2.585780        -0.508530        -2.059142
 H         0.488967         1.703680        -1.083688
 H         2.557417         3.195272        -0.332377
 H         3.336452         1.607565        -0.240438
 H         2.301428        -0.058059         0.694007
