19
Iteration:  2196charge 0 multiplicity 1
 O         4.238501         3.094977        -2.554186
 C         3.045847         2.394665        -2.426235
 C         1.991768         2.441165        -3.480097
 C         2.634339         1.121865        -3.157604
 C         1.885685         0.255730        -2.072396
 C         1.553457         1.245459        -0.918582
 C         2.710348         2.249993        -0.975989
 C         1.304557         0.460374         0.436216
 O         0.168441         0.237339         0.905527
 H         4.879301         2.851355        -3.235187
 H         0.924405         2.330611        -3.136309
 H         2.131416         2.785973        -4.485361
 H         3.270159         0.531902        -3.836294
 H         0.812360        -0.046560        -2.493684
 H         2.445646        -0.633941        -1.614765
 H         0.643908         1.820845        -1.193612
 H         2.508034         3.219390        -0.442041
 H         3.530684         1.723340        -0.522898
 H         2.336188         0.085744         0.808060
