19
Iteration:   194
 O         4.305103         2.800968        -2.196210
 C         2.888463         2.458211        -2.339292
 C         2.160834         2.508244        -3.601068
 C         2.559787         1.202985        -3.220552
 C         1.788639         0.179517        -2.344351
 C         1.381200         0.999998        -1.124477
 C         2.184147         2.376764        -1.064297
 C         1.520582         0.365196         0.325243
 O         0.654799         0.516710         1.158551
 H         4.452325         3.462192        -2.869762
 H         1.191059         2.776973        -3.338271
 H         2.660941         3.106832        -4.361096
 H         3.497639         0.805028        -3.553228
 H         0.802871        -0.084741        -2.880234
 H         2.344360        -0.803194        -2.191902
 H         0.243149         1.124465        -1.198195
 H         1.657795         3.191740        -0.493861
 H         3.070823         2.246625        -0.352787
 H         2.438088         0.008563         0.612912
