19
Iteration:  4073charge 0 multiplicity 1
 O         4.341388         2.824771        -2.621449
 C         2.993282         2.468575        -2.403595
 C         2.015336         2.389506        -3.646053
 C         2.651550         1.144363        -3.136357
 C         1.946555         0.309875        -2.044674
 C         1.439057         1.279603        -0.832193
 C         2.457701         2.408034        -0.923364
 C         1.332453         0.474397         0.445904
 O         0.280777         0.148601         0.907352
 H         4.535989         3.738695        -2.904732
 H         1.009944         2.725441        -3.604563
 H         2.629565         2.780689        -4.491021
 H         3.512382         0.786852        -3.639064
 H         1.077859        -0.214789        -2.535884
 H         2.676770        -0.545771        -1.785309
 H         0.476566         1.824824        -0.963713
 H         1.970041         3.365823        -0.554234
 H         3.333050         2.054402        -0.295842
 H         2.300105         0.214512         1.013286
