19
Iteration:  1723
 O         4.355212         2.966160        -2.566332
 C         3.039500         2.459386        -2.353145
 C         2.019957         2.525329        -3.509652
 C         2.531579         1.181344        -3.124273
 C         1.687537         0.407038        -2.180798
 C         1.420738         1.297775        -0.868933
 C         2.670628         2.264094        -0.842646
 C         1.369974         0.403244         0.331639
 O         0.381024         0.079307         0.917170
 H         4.903604         2.449006        -3.226347
 H         0.876166         2.610864        -3.465509
 H         2.372105         2.924857        -4.464181
 H         3.070038         0.771087        -3.939022
 H         0.758750         0.126126        -2.763097
 H         1.995728        -0.598499        -1.911944
 H         0.420895         1.719833        -0.939558
 H         2.529423         3.172252        -0.209726
 H         3.505004         1.690799        -0.479000
 H         2.424056        -0.040948         0.695681
