19
Iteration:  2806charge 0 multiplicity 1
 O         4.373748         2.664626        -2.588455
 C         3.037485         2.377680        -2.343011
 C         2.003339         2.468885        -3.484458
 C         2.588419         1.129468        -3.014219
 C         1.787853         0.325889        -2.029887
 C         1.393010         1.406627        -0.981545
 C         2.422846         2.538413        -0.988687
 C         1.408821         0.653149         0.343607
 O         0.465002        -0.015468         0.783145
 H         4.462180         3.553150        -2.243994
 H         0.879574         2.563532        -3.477212
 H         2.441956         2.633788        -4.540202
 H         3.398429         0.640486        -3.669448
 H         0.913295        -0.089495        -2.465274
 H         2.386358        -0.345435        -1.426264
 H         0.340543         1.635090        -1.019664
 H         2.126384         3.517622        -0.665504
 H         3.049123         2.118723        -0.195720
 H         2.400116         0.576222         0.888024
