19
Iteration:  4793charge 0 multiplicity 1
 O         4.255942         2.957127        -2.450980
 C         3.020855         2.476685        -2.421714
 C         2.099937         2.381061        -3.637597
 C         2.642979         1.148410        -3.144164
 C         1.943861         0.196774        -2.198628
 C         1.406938         1.076822        -1.009985
 C         2.392864         2.232752        -0.930312
 C         1.286580         0.384602         0.310591
 O         0.438516         0.554079         1.175135
 H         4.323454         3.960623        -2.425056
 H         1.005856         2.534387        -3.666702
 H         2.806318         2.770750        -4.441690
 H         3.339855         0.558492        -3.874385
 H         1.088599        -0.415191        -2.685252
 H         2.629857        -0.596214        -1.946812
 H         0.442711         1.438789        -1.428883
 H         1.857817         3.104856        -0.552623
 H         3.295288         1.989016        -0.336924
 H         2.084483        -0.273533         0.497195
