19
Iteration:   387
 O         4.350183         2.899362        -2.736245
 C         3.137336         2.465383        -2.383243
 C         1.982077         2.603660        -3.388550
 C         2.576918         1.223473        -3.125578
 C         1.918534         0.264269        -2.110999
 C         1.554682         1.123652        -0.892930
 C         2.585527         2.388484        -0.923186
 C         1.277608         0.417863         0.456865
 O         0.183634         0.109180         0.933911
 H         4.244367         3.237268        -3.647959
 H         0.958691         2.691480        -2.864509
 H         2.226812         2.993733        -4.423316
 H         3.155903         0.762077        -3.915717
 H         1.134789        -0.328328        -2.545156
 H         2.775425        -0.366867        -1.929088
 H         0.595792         1.523662        -1.170302
 H         1.871062         3.148516        -0.575558
 H         3.391206         2.347271        -0.194008
 H         2.226107         0.015478         0.847146
