19
Iteration:  2617
 O         4.360325         2.878978        -2.578542
 C         2.976701         2.359579        -2.402763
 C         2.010174         2.566127        -3.533849
 C         2.627062         1.126283        -3.212557
 C         1.918869         0.226108        -2.167319
 C         1.431618         1.109717        -1.005023
 C         2.599034         2.335861        -0.908420
 C         1.349863         0.529449         0.475449
 O         0.238648         0.255494         1.020202
 H         4.153157         3.771604        -2.961920
 H         0.998532         2.980245        -3.341286
 H         2.435646         2.977463        -4.475442
 H         3.379452         0.880043        -3.917430
 H         0.985585        -0.384925        -2.523654
 H         2.573372        -0.473834        -1.619982
 H         0.437674         1.531538        -1.272046
 H         2.202360         3.225740        -0.430754
 H         3.481042         1.919618        -0.227137
 H         2.321434         0.382194         1.088021
