19
Iteration:  4542
 O         4.427425         2.838877        -2.650861
 C         3.139556         2.337668        -2.364624
 C         1.983378         2.333840        -3.471721
 C         2.652555         1.084204        -3.034429
 C         1.853676         0.307804        -2.077428
 C         1.307388         1.366421        -0.956005
 C         2.375387         2.441558        -0.947036
 C         1.364119         0.572353         0.309330
 O         0.406932         0.136631         0.918407
 H         4.454954         3.793039        -2.649788
 H         0.952810         2.618325        -3.178497
 H         2.257727         2.764428        -4.453241
 H         3.368158         0.657437        -3.590244
 H         0.973892        -0.226326        -2.527281
 H         2.496167        -0.552102        -1.673937
 H         0.369661         1.792867        -1.258032
 H         1.796800         3.398203        -0.670154
 H         3.013360         2.358901        -0.049785
 H         2.375616         0.455521         0.600128
