19
Iteration:  2150
 O         4.297731         2.994711        -2.736363
 C         3.035928         2.405035        -2.341856
 C         1.930897         2.536077        -3.415125
 C         2.647179         1.140166        -3.045563
 C         1.920727         0.170335        -2.101327
 C         1.459840         1.195861        -0.951352
 C         2.572079         2.283296        -0.900198
 C         1.307906         0.526280         0.312980
 O         0.285914         0.229465         0.868606
 H         4.977237         2.516108        -2.186783
 H         1.084778         2.935647        -2.965033
 H         2.256848         3.038898        -4.355318
 H         3.311301         0.639522        -3.715706
 H         0.872385        -0.186133        -2.380062
 H         2.606717        -0.618764        -1.752908
 H         0.507713         1.620489        -1.131835
 H         2.280125         3.242597        -0.403052
 H         3.396101         1.880360        -0.305328
 H         2.380278         0.270265         0.707589
