19
Iteration:  4477
 O         4.336900         2.868748        -2.511416
 C         2.975738         2.439498        -2.430748
 C         2.109545         2.429677        -3.619674
 C         2.640628         1.091042        -3.071846
 C         1.819898         0.200744        -2.178050
 C         1.434661         1.265506        -0.982531
 C         2.482346         2.385261        -0.960186
 C         1.326649         0.546753         0.380023
 O         0.374469         0.183879         1.054289
 H         4.313731         3.826819        -2.776127
 H         1.151623         2.848035        -3.451943
 H         2.460290         2.678684        -4.618546
 H         3.348398         0.612461        -3.554223
 H         0.905205        -0.091146        -2.707342
 H         2.280132        -0.650791        -1.714894
 H         0.441123         1.555584        -1.064953
 H         1.956294         3.318465        -0.533821
 H         3.362464         2.225500        -0.301943
 H         2.440753         0.529754         0.728860
