19
Iteration:  2290
 O         4.309637         2.852062        -2.583417
 C         3.021218         2.449747        -2.368536
 C         2.045171         2.475956        -3.537006
 C         2.618141         1.162490        -3.084628
 C         1.883655         0.225106        -2.113513
 C         1.324957         1.211020        -1.000902
 C         2.490211         2.290591        -1.006708
 C         1.423184         0.521037         0.355637
 O         0.376336         0.289403         0.984528
 H         4.441274         3.437942        -1.809356
 H         0.954293         2.614900        -3.402190
 H         2.417458         2.909255        -4.461911
 H         3.375302         0.670966        -3.703188
 H         1.091780        -0.217858        -2.608432
 H         2.551164        -0.586094        -1.727914
 H         0.234594         1.428968        -1.153273
 H         2.040984         3.189487        -0.624958
 H         3.227170         1.927749        -0.281296
 H         2.525674         0.336420         0.748532
