19
Iteration:  2770
 O         4.432518         2.834201        -2.510829
 C         3.113882         2.309175        -2.392014
 C         2.067303         2.488998        -3.547235
 C         2.571804         1.154433        -3.081731
 C         1.696620         0.289370        -2.096149
 C         1.353542         1.340248        -0.957075
 C         2.434757         2.407775        -1.053751
 C         1.332619         0.706964         0.417757
 O         0.474812        -0.047893         0.919433
 H         4.425259         3.790194        -2.570025
 H         0.996892         2.728598        -3.399002
 H         2.496916         2.643077        -4.541501
 H         3.133280         0.585408        -3.831760
 H         0.725558        -0.277949        -2.481654
 H         2.211763        -0.646306        -1.678990
 H         0.381361         1.827698        -1.050875
 H         2.285803         3.370913        -0.678305
 H         3.263079         2.018172        -0.487035
 H         2.238421         1.007569         1.034534
