19
Iteration:   726
 O         4.386175         2.967288        -2.509447
 C         3.032025         2.355380        -2.392724
 C         1.930178         2.605084        -3.353325
 C         2.455731         1.246117        -3.146880
 C         1.890476         0.174702        -2.160762
 C         1.539603         1.066151        -0.950752
 C         2.596256         2.245021        -0.928356
 C         1.335267         0.270253         0.232402
 O         0.385500         0.456128         0.954797
 H         4.172153         3.873353        -2.843051
 H         0.959451         2.938607        -2.936823
 H         2.166060         2.989767        -4.321710
 H         2.715173         0.781367        -4.076416
 H         0.954971        -0.135812        -2.603514
 H         2.603172        -0.681685        -2.079092
 H         0.635247         1.536919        -1.123865
 H         2.261140         3.184615        -0.552773
 H         3.413804         1.870355        -0.228123
 H         1.939908        -0.673698         0.380700
