19
Iteration:  2884charge 0 multiplicity 1
 O         4.331282         2.966725        -2.568085
 C         3.032725         2.409926        -2.316174
 C         2.022827         2.361006        -3.506758
 C         2.648172         1.072604        -2.971127
 C         1.763037         0.301766        -2.096863
 C         1.359449         1.364002        -1.009857
 C         2.609533         2.285514        -0.924840
 C         1.390512         0.612777         0.353359
 O         0.365675         0.095000         0.833599
 H         4.251329         3.328039        -3.454560
 H         0.967010         2.716347        -3.374240
 H         2.346353         2.798940        -4.432572
 H         3.233485         0.477049        -3.610612
 H         0.892984        -0.010084        -2.653266
 H         2.166988        -0.561828        -1.543092
 H         0.415866         1.873927        -1.173451
 H         2.331625         3.211607        -0.422952
 H         3.445147         1.843102        -0.412310
 H         2.399629         0.446618         0.828470
