19
Iteration:  1493charge 0 multiplicity 1
 O         4.349060         2.891036        -2.593687
 C         3.110335         2.417085        -2.383361
 C         2.050394         2.683671        -3.337583
 C         2.479305         1.286595        -3.230179
 C         1.812085         0.289540        -2.245169
 C         1.489889         1.044820        -0.927050
 C         2.594086         2.271624        -1.011759
 C         1.345835         0.286753         0.416568
 O         0.297104         0.220397         1.071565
 H         4.319699         3.507805        -3.374571
 H         1.018983         2.950750        -2.975267
 H         2.517349         3.334073        -4.225511
 H         2.967308         0.888700        -4.174430
 H         0.847197         0.060314        -2.739676
 H         2.409421        -0.579688        -2.107723
 H         0.505140         1.552749        -1.051754
 H         2.240448         3.170563        -0.442872
 H         3.381223         2.068653        -0.267865
 H         2.386476        -0.099838         0.674777
