19
Iteration:  3439charge 0 multiplicity 1
 O         4.436656         2.871615        -2.571126
 C         3.041015         2.425841        -2.409025
 C         2.120686         2.546985        -3.581890
 C         2.542590         1.133339        -3.121780
 C         1.785234         0.219036        -2.052520
 C         1.419165         1.230128        -0.889097
 C         2.409508         2.335507        -1.076462
 C         1.346886         0.643367         0.499743
 O         0.370610         0.034834         0.904386
 H         4.349489         3.832703        -2.704510
 H         1.080090         2.808847        -3.562630
 H         2.600762         2.803386        -4.570695
 H         3.314901         0.646540        -3.738218
 H         0.916222        -0.282558        -2.532704
 H         2.486103        -0.437342        -1.582234
 H         0.468614         1.668767        -0.929242
 H         1.965440         3.284103        -0.714633
 H         3.230213         2.042539        -0.376361
 H         2.208112         0.712824         1.279231
