19
Iteration:  2237
 O         4.281805         2.980067        -2.593600
 C         3.037493         2.375840        -2.378447
 C         2.037731         2.516358        -3.511865
 C         2.644131         1.070542        -3.109850
 C         1.857649         0.293348        -2.056343
 C         1.527153         1.246034        -0.928573
 C         2.579433         2.297318        -0.904179
 C         1.356374         0.418183         0.376354
 O         0.242924         0.285937         0.904600
 H         3.971709         3.305438        -3.478781
 H         0.950884         2.629094        -3.349680
 H         2.392286         2.836435        -4.518083
 H         3.315170         0.633839        -3.858380
 H         1.027838        -0.388577        -2.379301
 H         2.587789        -0.404790        -1.712316
 H         0.515994         1.588247        -1.124629
 H         2.170506         3.264383        -0.443004
 H         3.561446         1.870996        -0.411352
 H         2.144047        -0.190219         0.789256
