19
Iteration:  1485charge 0 multiplicity 1
 O         4.389936         2.895059        -2.613674
 C         3.098166         2.391979        -2.355087
 C         2.012988         2.717668        -3.367739
 C         2.495693         1.271485        -3.225413
 C         1.768541         0.276213        -2.265320
 C         1.527397         1.092044        -0.904318
 C         2.569019         2.276234        -0.939906
 C         1.371952         0.267688         0.398318
 O         0.312523         0.247043         1.043099
 H         4.337543         3.676722        -3.230989
 H         1.040193         3.024007        -3.049132
 H         2.166440         3.040370        -4.349743
 H         3.142160         1.040888        -4.066377
 H         0.915655        -0.133312        -2.780432
 H         2.367915        -0.727550        -2.088390
 H         0.493468         1.573770        -1.049820
 H         2.018088         3.166637        -0.528718
 H         3.502641         1.894250        -0.373934
 H         2.170407        -0.346101         0.897867
