19
Iteration:   718
 O         4.323252         2.885772        -2.476423
 C         3.052618         2.395959        -2.389322
 C         1.870020         2.626886        -3.358260
 C         2.504977         1.231540        -3.152551
 C         1.925838         0.270873        -2.199216
 C         1.558814         1.125188        -0.971743
 C         2.574833         2.181586        -0.921013
 C         1.355596         0.247213         0.264439
 O         0.364078         0.466681         0.973121
 H         4.262475         3.724790        -3.011419
 H         0.933739         2.855560        -3.104956
 H         2.102138         3.033786        -4.292446
 H         2.935625         0.791302        -4.042785
 H         1.006892        -0.332172        -2.500071
 H         2.753583        -0.495028        -2.092395
 H         0.566288         1.536471        -1.147808
 H         2.252322         3.138507        -0.501772
 H         3.581093         1.840811        -0.559974
 H         2.013146        -0.672479         0.378814
