19
Iteration:   489
 O         4.497477         2.894326        -2.674239
 C         3.097934         2.424523        -2.403996
 C         2.147604         2.541628        -3.536267
 C         2.528341         1.185035        -3.082066
 C         1.666241         0.308456        -2.078183
 C         1.337700         1.340757        -0.888402
 C         2.500046         2.455060        -0.973332
 C         1.320455         0.519643         0.477713
 O         0.402707        -0.172734         0.981756
 H         4.294792         3.517572        -3.413640
 H         1.198203         2.853895        -3.324975
 H         2.489344         2.890003        -4.476091
 H         2.915192         0.635123        -3.974636
 H         0.744126        -0.185988        -2.480021
 H         2.318090        -0.457692        -1.902062
 H         0.361213         1.828818        -1.126438
 H         2.028574         3.428337        -0.749734
 H         3.250143         2.273081        -0.254504
 H         2.340912         0.360391         0.933045
