19
Iteration:  1769charge 0 multiplicity 1
 O         4.364522         3.010028        -2.497980
 C         3.130124         2.398305        -2.326375
 C         1.960214         2.568871        -3.326196
 C         2.458831         1.138308        -3.185785
 C         1.718932         0.288845        -2.212878
 C         1.481989         1.229598        -1.028555
 C         2.642211         2.212862        -0.890360
 C         1.382954         0.337663         0.272510
 O         0.354151         0.261353         0.940444
 H         4.644831         2.954137        -3.457870
 H         1.151176         3.034451        -2.931402
 H         2.167656         3.025795        -4.324110
 H         2.954742         0.522146        -4.030041
 H         0.822306        -0.276794        -2.473098
 H         2.414178        -0.522150        -1.986636
 H         0.471592         1.734617        -0.999684
 H         2.346929         3.218274        -0.449016
 H         3.461617         1.850300        -0.374765
 H         2.278372         0.033146         0.654884
