19
Iteration:  1128
 O         4.318575         2.884528        -2.652713
 C         3.080872         2.404490        -2.284464
 C         1.967068         2.530319        -3.406612
 C         2.571677         1.275604        -3.122002
 C         1.847784         0.285918        -2.288872
 C         1.453958         1.190895        -1.000664
 C         2.628099         2.241860        -0.838838
 C         1.343690         0.457644         0.377531
 O         0.299940         0.186727         0.969078
 H         4.166502         3.739833        -3.039515
 H         0.952614         2.679849        -3.003607
 H         2.235674         3.083164        -4.244050
 H         3.353367         1.071678        -3.975090
 H         0.863098        -0.160578        -2.639077
 H         2.607178        -0.552315        -2.041801
 H         0.502556         1.682042        -1.133778
 H         2.562064         3.191113        -0.321120
 H         3.354801         1.557624        -0.254533
 H         2.300576        -0.071331         0.689059
