19
Iteration:  2005charge 0 multiplicity 1
 O         4.283683         2.981000        -2.398277
 C         3.057436         2.393810        -2.469360
 C         2.203998         2.570829        -3.623349
 C         2.517187         1.118541        -3.208813
 C         1.642326         0.332940        -2.207291
 C         1.453489         1.173453        -0.983007
 C         2.395322         2.370454        -0.996558
 C         1.400039         0.347159         0.349534
 O         0.464709         0.219015         1.178044
 H         5.052527         2.407007        -2.283947
 H         1.217796         3.113305        -3.566428
 H         2.804524         2.762712        -4.544594
 H         3.280703         0.701372        -3.937170
 H         0.753536        -0.184521        -2.615644
 H         2.262407        -0.497556        -1.812823
 H         0.450623         1.563042        -1.113124
 H         2.019411         3.304322        -0.654970
 H         3.214794         2.194690        -0.361128
 H         2.441978        -0.239295         0.421380
