19
Iteration:  1668charge 0 multiplicity 1
 O         4.462502         2.856603        -2.594579
 C         3.064267         2.336466        -2.391354
 C         1.987452         2.635575        -3.430757
 C         2.394727         1.172488        -3.111788
 C         1.664328         0.386986        -2.127715
 C         1.446099         1.297574        -0.919088
 C         2.561634         2.331631        -0.939530
 C         1.392908         0.500026         0.342174
 O         0.452930        -0.012915         0.861605
 H         5.080730         2.648575        -1.884760
 H         1.001318         2.945718        -2.864698
 H         2.206194         3.127294        -4.376377
 H         2.964767         0.745476        -3.879319
 H         0.773840        -0.127818        -2.630180
 H         2.415633        -0.360042        -1.828148
 H         0.421876         1.642867        -1.044091
 H         2.095539         3.328231        -0.900602
 H         3.333597         2.283934        -0.219550
 H         2.440626         0.333899         0.615835
