19
Iteration:  3589
 O         4.288013         2.887225        -2.570178
 C         3.091932         2.321501        -2.416755
 C         2.043651         2.521012        -3.531000
 C         2.626119         1.147541        -3.119439
 C         1.882669         0.257932        -2.066771
 C         1.451969         1.212938        -0.959789
 C         2.497617         2.313591        -0.992373
 C         1.331568         0.486276         0.387512
 O         0.321193         0.255952         0.983795
 H         4.146801         3.850527        -2.572373
 H         1.011927         2.653522        -3.440077
 H         2.533002         3.010673        -4.387898
 H         3.353410         0.625102        -3.729582
 H         1.082211        -0.316131        -2.534049
 H         2.646713        -0.482036        -1.650527
 H         0.421001         1.674238        -1.350466
 H         1.902277         3.219330        -0.677957
 H         3.253627         2.285703        -0.272568
 H         2.309415         0.059222         0.713293
