19
Iteration:  4129
 O         4.340150         2.939777        -2.484114
 C         3.090497         2.327823        -2.358213
 C         2.044242         2.310956        -3.496374
 C         2.658360         1.081755        -3.047761
 C         1.721684         0.299493        -2.091721
 C         1.323817         1.238202        -1.089763
 C         2.480689         2.425989        -1.004042
 C         1.403358         0.575000         0.347180
 O         0.430223         0.200660         0.922965
 H         4.225298         3.872773        -2.619292
 H         1.004507         2.588923        -3.290450
 H         2.162825         2.653408        -4.472688
 H         3.449022         0.549460        -3.749855
 H         0.932500        -0.287265        -2.643983
 H         2.506966        -0.588140        -1.813706
 H         0.327022         1.828519        -1.102244
 H         2.123969         3.452137        -0.614718
 H         3.273166         2.192135        -0.150635
 H         2.514357         0.380427         0.656236
