19
Iteration:  3950
 O         4.338659         3.005960        -2.574773
 C         3.101339         2.387271        -2.418950
 C         2.019367         2.456569        -3.436803
 C         2.611436         1.042006        -3.055666
 C         1.885830         0.154413        -1.975750
 C         1.503878         1.344720        -0.965766
 C         2.524359         2.330303        -0.965022
 C         1.292304         0.461815         0.257478
 O         0.279905         0.240257         0.912756
 H         4.150256         3.583881        -3.318531
 H         0.913802         2.596874        -3.081593
 H         2.228283         2.786723        -4.463677
 H         3.159938         0.553253        -3.896296
 H         0.902636        -0.195131        -2.332607
 H         2.613913        -0.662453        -1.707374
 H         0.501269         1.613825        -1.186887
 H         2.230493         3.422234        -0.843846
 H         3.415159         2.189750        -0.274507
 H         2.241318         0.052913         0.757628
