19
Iteration:   708charge 0 multiplicity 1
 O         4.292168         2.835496        -2.474126
 C         2.937773         2.439902        -2.366031
 C         1.862323         2.644613        -3.383412
 C         2.543874         1.231584        -3.247323
 C         1.937589         0.299025        -2.225864
 C         1.525332         1.093289        -0.989061
 C         2.673622         2.169224        -0.943294
 C         1.308414         0.269601         0.275065
 O         0.373016         0.447658         1.014443
 H         4.520355         3.519445        -3.121167
 H         0.898820         2.785425        -3.010045
 H         2.124124         3.125566        -4.295086
 H         3.401068         1.005933        -3.865579
 H         1.175920        -0.447563        -2.633777
 H         2.733751        -0.258918        -1.677580
 H         0.537947         1.627844        -1.130868
 H         2.331739         2.978159        -0.259625
 H         3.537439         1.800751        -0.333178
 H         2.138382        -0.425303         0.573985
