19
Iteration:   616
 O         4.316852         2.933144        -2.501828
 C         2.988659         2.443302        -2.364242
 C         2.010466         2.527785        -3.577652
 C         2.640259         1.151935        -3.084699
 C         1.670876         0.343561        -2.157549
 C         1.435452         1.285868        -0.961065
 C         2.526866         2.286358        -0.888442
 C         1.383731         0.316930         0.278384
 O         0.457901         0.216611         1.009004
 H         4.525899         3.343194        -3.360838
 H         0.928669         2.544120        -3.402712
 H         2.422373         3.012669        -4.470310
 H         3.550211         0.691185        -3.570613
 H         0.791131         0.043999        -2.719274
 H         2.261930        -0.590132        -1.882263
 H         0.498406         1.798708        -0.886666
 H         2.582368         3.169763        -0.259593
 H         3.469768         1.757567        -0.439340
 H         2.209837        -0.426739         0.279340
