19
Iteration:  4355
 O         4.340780         3.009299        -2.520206
 C         3.067632         2.305988        -2.354631
 C         1.943580         2.502268        -3.396442
 C         2.646714         1.059278        -3.118255
 C         1.955174         0.150838        -2.172652
 C         1.390495         1.098335        -1.065777
 C         2.436078         2.234215        -0.942372
 C         1.380052         0.485349         0.320850
 O         0.361321         0.539742         0.975459
 H         4.255410         3.984868        -2.508939
 H         0.879240         2.396379        -2.924556
 H         2.106658         2.953260        -4.396895
 H         3.343911         0.657201        -3.947885
 H         1.166235        -0.490535        -2.640538
 H         2.576745        -0.663558        -1.818657
 H         0.472457         1.409250        -1.523282
 H         2.106130         3.247202        -0.568546
 H         3.272447         1.812869        -0.290668
 H         2.267340        -0.110615         0.422242
