19
Iteration:  4015charge 0 multiplicity 1
 O         4.281131         2.994169        -2.684351
 C         3.126976         2.322101        -2.403456
 C         2.015039         2.422946        -3.443555
 C         2.654983         1.071694        -3.063950
 C         1.869998         0.244631        -2.102133
 C         1.438504         1.267869        -0.956266
 C         2.609920         2.315162        -0.995575
 C         1.293818         0.568511         0.397749
 O         0.263494         0.178585         0.887067
 H         4.366135         3.794764        -2.159091
 H         0.900216         2.508176        -3.059704
 H         2.279371         2.896717        -4.392424
 H         3.389480         0.519283        -3.676803
 H         0.956581        -0.347722        -2.409053
 H         2.591619        -0.436113        -1.512408
 H         0.532734         1.799011        -1.167317
 H         2.120290         3.173553        -0.510718
 H         3.324330         2.098049        -0.222481
 H         2.227222         0.675471         0.989360
