19
Iteration:   167
 O         4.306709         2.913872        -2.358390
 C         2.972392         2.357912        -2.374362
 C         2.179140         2.499343        -3.660850
 C         2.716662         1.157896        -3.128949
 C         1.730998         0.337368        -2.344065
 C         1.310963         1.112949        -1.016373
 C         2.213860         2.285269        -1.036888
 C         1.452907         0.240917         0.322298
 O         0.657728         0.470759         1.228211
 H         4.068943         3.776070        -2.010777
 H         1.016964         2.728895        -3.646691
 H         2.871644         2.784184        -4.472583
 H         3.408975         0.621695        -3.822509
 H         0.836773         0.257575        -2.925453
 H         2.047617        -0.682115        -2.207279
 H         0.285677         1.282227        -1.010023
 H         1.550603         3.142632        -0.971811
 H         2.751397         2.495683        -0.138986
 H         2.337069        -0.452336         0.503953
