19
Iteration:  1877charge 0 multiplicity 1
 O         4.290902         3.059205        -2.540555
 C         3.005453         2.356456        -2.288849
 C         2.020834         2.549609        -3.503460
 C         2.656610         1.177492        -3.202280
 C         1.753363         0.317875        -2.271262
 C         1.361386         1.124060        -0.967744
 C         2.556172         2.156122        -0.848458
 C         1.338218         0.332220         0.279410
 O         0.457680         0.385215         1.065614
 H         4.874251         2.330803        -2.846537
 H         1.007588         2.810402        -3.345384
 H         2.481539         3.193448        -4.229931
 H         3.410640         0.760962        -3.970410
 H         0.756578         0.054068        -2.742646
 H         2.257509        -0.587010        -1.914528
 H         0.461100         1.686535        -1.143257
 H         2.230616         3.130333        -0.344673
 H         3.524068         1.659574        -0.341728
 H         2.226423        -0.297943         0.447518
