19
Iteration:  3875charge 0 multiplicity 1
 O         4.365320         2.974034        -2.524690
 C         3.030864         2.418092        -2.478574
 C         2.123404         2.442023        -3.724015
 C         2.629655         1.138381        -3.164000
 C         1.856065         0.261965        -2.102735
 C         1.411458         1.169824        -0.884837
 C         2.359528         2.274181        -0.972662
 C         1.378789         0.412212         0.437099
 O         0.334745         0.330261         1.050604
 H         4.205308         3.910863        -2.262753
 H         1.058932         2.835758        -3.724456
 H         2.696128         2.597381        -4.656548
 H         3.464923         0.574307        -3.675523
 H         0.948444        -0.172854        -2.481093
 H         2.469070        -0.611196        -1.812065
 H         0.276767         1.479064        -0.969515
 H         2.020140         3.115415        -0.230876
 H         3.386154         2.047836        -0.396919
 H         2.310024        -0.036672         0.802291
