19
Iteration:   347charge 0 multiplicity 1
 O         4.301408         2.913324        -2.576506
 C         2.970575         2.413479        -2.379328
 C         1.886045         2.548744        -3.417557
 C         2.494050         1.181430        -3.131974
 C         1.967741         0.265100        -2.121407
 C         1.560631         1.135940        -1.057064
 C         2.635337         2.207987        -0.891211
 C         1.376693         0.488100         0.358363
 O         0.304435         0.306639         0.870252
 H         4.436969         3.617820        -1.900872
 H         0.920302         2.696762        -3.084965
 H         2.000561         2.823735        -4.407578
 H         3.174498         0.685486        -3.849827
 H         1.162531        -0.522245        -2.306566
 H         2.833440        -0.299023        -1.760438
 H         0.589502         1.663700        -1.329411
 H         2.213085         3.176779        -0.559716
 H         3.499099         1.844852        -0.338060
 H         2.294336        -0.088133         0.841644
