19
Iteration:  3124
 O         4.314401         2.880338        -2.376231
 C         2.988199         2.388484        -2.389512
 C         2.050161         2.433644        -3.628691
 C         2.667952         1.195491        -3.077924
 C         1.978723         0.205270        -2.304730
 C         1.307255         1.053226        -1.037477
 C         2.217900         2.310191        -0.947030
 C         1.251964         0.303165         0.223413
 O         0.648013         0.628107         1.176139
 H         4.364480         3.822721        -2.227708
 H         1.115715         2.706203        -3.245722
 H         2.462643         2.870257        -4.519720
 H         3.432273         0.604691        -3.753503
 H         1.356075        -0.458418        -2.931355
 H         2.674546        -0.551188        -1.834842
 H         0.327952         1.447431        -1.269078
 H         1.700538         3.271013        -0.741566
 H         3.124909         2.072867        -0.211112
 H         2.016236        -0.578795         0.221811
