19
Iteration:  1390
 O         4.287996         2.979790        -2.571907
 C         3.037357         2.382188        -2.382475
 C         2.013155         2.687482        -3.487491
 C         2.558658         1.241416        -3.177945
 C         1.692675         0.231458        -2.242285
 C         1.521621         1.038770        -0.949556
 C         2.623296         2.194697        -0.946222
 C         1.411929         0.269365         0.341217
 O         0.368001         0.356543         1.053344
 H         4.698638         3.239869        -1.703894
 H         0.977251         2.907882        -3.221574
 H         2.488665         3.247188        -4.236521
 H         3.222403         0.988325        -3.999823
 H         0.624868         0.030252        -2.486051
 H         2.099407        -0.694728        -2.141754
 H         0.626613         1.631089        -1.110823
 H         2.234900         3.139857        -0.642176
 H         3.420074         1.858893        -0.339234
 H         2.321242        -0.267625         0.644539
