19
Iteration:  4264charge 0 multiplicity 1
 O         4.290763         2.989951        -2.464808
 C         3.009843         2.420155        -2.399776
 C         2.034668         2.445010        -3.476591
 C         2.761251         1.087033        -3.152944
 C         1.843061         0.178755        -2.114990
 C         1.393277         1.177587        -1.068946
 C         2.490104         2.200737        -1.021829
 C         1.319760         0.435813         0.329017
 O         0.399241         0.462206         1.076253
 H         4.086767         3.920542        -2.805126
 H         0.992466         2.564724        -3.239222
 H         2.372449         2.961109        -4.406214
 H         3.461075         0.639420        -3.814423
 H         0.937526        -0.275111        -2.477428
 H         2.401894        -0.754700        -1.902718
 H         0.425011         1.537739        -1.313779
 H         1.956889         3.096627        -0.818054
 H         3.351631         2.041008        -0.296886
 H         2.268700        -0.293872         0.503381
