19
Iteration:  3660charge 0 multiplicity 1
 O         4.281602         3.010349        -2.543695
 C         3.020372         2.349785        -2.370476
 C         2.119158         2.499101        -3.689577
 C         2.653974         1.225125        -3.146151
 C         1.860687         0.221775        -2.154332
 C         1.443725         1.063587        -0.942700
 C         2.485056         2.145675        -0.990126
 C         1.323980         0.387848         0.411489
 O         0.305181         0.456623         1.116168
 H         4.083852         3.949749        -2.713521
 H         1.056790         2.784688        -3.613773
 H         2.692593         2.951454        -4.537326
 H         3.369720         0.792300        -3.913945
 H         1.063179        -0.485159        -2.485994
 H         2.721064        -0.382044        -1.862076
 H         0.517377         1.474386        -1.005619
 H         2.169052         3.078338        -0.532372
 H         3.448106         1.948465        -0.333030
 H         2.115923        -0.287867         0.757578
