19
Iteration:  1065
 O         4.316755         3.019704        -2.527157
 C         3.095153         2.355335        -2.403730
 C         1.974294         2.544113        -3.405925
 C         2.518916         1.192126        -3.218892
 C         1.762947         0.354897        -2.051843
 C         1.484037         1.261214        -0.969154
 C         2.715498         2.218739        -0.907270
 C         1.337604         0.420256         0.284830
 O         0.311223         0.132540         0.936756
 H         4.544828         3.321829        -3.428667
 H         0.952208         2.729926        -3.080137
 H         2.231709         3.145716        -4.215513
 H         3.004552         0.579913        -4.065497
 H         0.941170        -0.175748        -2.345775
 H         2.412851        -0.501231        -1.665218
 H         0.528093         1.704664        -1.151262
 H         2.434673         3.149723        -0.455375
 H         3.494374         1.581505        -0.360469
 H         2.259747        -0.123529         0.612143
