19
Iteration:  1603
 O         4.429499         2.801045        -2.654190
 C         3.073969         2.440469        -2.395284
 C         2.086492         2.652245        -3.490250
 C         2.509324         1.213525        -3.111483
 C         1.672214         0.409545        -2.198682
 C         1.372295         1.293199        -0.836389
 C         2.577371         2.373038        -0.926070
 C         1.370884         0.430380         0.418462
 O         0.385525        -0.104290         0.976019
 H         4.354854         3.618915        -3.170600
 H         1.069990         3.121259        -3.260515
 H         2.589404         3.007307        -4.430165
 H         3.122899         0.577074        -3.724401
 H         0.704026         0.159721        -2.710424
 H         2.066475        -0.547123        -1.993106
 H         0.412459         1.864289        -0.861270
 H         2.288908         3.321456        -0.381632
 H         3.493266         1.942376        -0.525440
 H         2.424729         0.028054         0.718637
