19
Iteration:  4945
 O         4.356430         2.977613        -2.525903
 C         3.020907         2.407753        -2.335305
 C         2.090093         2.312257        -3.585007
 C         2.730281         1.050220        -3.127561
 C         1.803352         0.201885        -2.122834
 C         1.436756         1.223788        -1.015146
 C         2.341765         2.412729        -0.962098
 C         1.330768         0.448124         0.261037
 O         0.439738         0.359261         1.072721
 H         4.274472         3.980998        -2.611476
 H         1.003998         2.489161        -3.379412
 H         2.401952         2.703945        -4.544942
 H         3.387907         0.408125        -3.656408
 H         0.902034        -0.067401        -2.603555
 H         2.282145        -0.627922        -1.594606
 H         0.391069         1.548053        -1.005172
 H         1.816991         3.343186        -0.826956
 H         3.024389         2.329404        -0.100977
 H         2.252562        -0.170722         0.550741
