19
Iteration:  4339charge 0 multiplicity 1
 O         4.333192         2.957621        -2.491474
 C         3.034565         2.381279        -2.341755
 C         1.873156         2.299766        -3.388769
 C         2.660493         1.148538        -3.130246
 C         1.942955         0.204418        -2.153868
 C         1.444362         1.123573        -1.092811
 C         2.529788         2.237937        -0.934676
 C         1.295702         0.401896         0.201723
 O         0.401850         0.563539         0.967495
 H         4.242930         3.915933        -2.406357
 H         0.950620         2.581534        -3.190660
 H         2.135017         2.840353        -4.305091
 H         3.248238         0.774556        -3.915397
 H         1.132276        -0.318600        -2.639512
 H         2.709513        -0.423972        -1.596161
 H         0.467019         1.661748        -0.989719
 H         1.967716         3.098313        -0.663252
 H         3.248066         2.043962        -0.168593
 H         2.283472        -0.071819         0.671516
