19
Iteration:  4344
 O         4.388543         2.982979        -2.500205
 C         3.038342         2.354587        -2.362484
 C         1.871012         2.336172        -3.365724
 C         2.670823         1.126443        -3.127641
 C         1.952091         0.177538        -2.159687
 C         1.413107         1.140484        -1.052905
 C         2.484289         2.206963        -0.937253
 C         1.328431         0.431136         0.200256
 O         0.400407         0.562407         0.958050
 H         4.059497         3.921135        -2.430122
 H         0.716605         2.599071        -3.167200
 H         2.172519         2.923635        -4.231952
 H         3.268348         0.620677        -3.999686
 H         1.066553        -0.326254        -2.607734
 H         2.732892        -0.435321        -1.730669
 H         0.393190         1.529113        -1.100923
 H         1.919200         3.115889        -0.571854
 H         3.267284         2.041205        -0.129554
 H         2.206260         0.015285         0.638357
