19
Iteration:   417charge 0 multiplicity 1
 O         4.295247         3.060190        -2.568509
 C         3.079275         2.388788        -2.439149
 C         1.979071         2.514848        -3.409147
 C         2.579483         1.109507        -3.076420
 C         1.756177         0.308718        -1.963656
 C         1.441478         1.364652        -0.941257
 C         2.696003         2.285357        -0.994498
 C         1.352161         0.516388         0.356765
 O         0.334673         0.043536         0.831394
 H         4.712018         2.909104        -3.421846
 H         0.852064         2.790494        -3.248796
 H         2.222298         2.814358        -4.496046
 H         3.048438         0.470468        -3.786725
 H         0.925743        -0.293878        -2.312808
 H         2.439065        -0.522327        -1.444904
 H         0.496885         1.819354        -1.246521
 H         2.413839         3.109396        -0.359053
 H         3.442896         1.552646        -0.520616
 H         2.277346        -0.153766         0.572087
