19
Iteration:  2260charge 0 multiplicity 1
 O         4.403720         2.968969        -2.614382
 C         3.190329         2.369081        -2.369630
 C         1.959395         2.441926        -3.386284
 C         2.579862         1.104647        -3.095677
 C         1.915933         0.174120        -2.109065
 C         1.386273         1.234036        -1.038906
 C         2.543696         2.351647        -0.976001
 C         1.285202         0.499716         0.315112
 O         0.321109         0.251863         0.993810
 H         4.096183         3.883770        -2.735617
 H         0.918948         2.524315        -2.919991
 H         2.064220         2.846819        -4.375075
 H         3.212470         0.628064        -3.869785
 H         0.905405        -0.162106        -2.534962
 H         2.410344        -0.716113        -1.830200
 H         0.383962         1.660143        -1.203284
 H         2.062415         3.400938        -0.921085
 H         3.324672         2.176187        -0.117420
 H         2.219030         0.125713         0.693140
