19
Iteration:    55charge 0 multiplicity 1
 O         4.388074         2.908068        -2.277108
 C         3.016150         2.343231        -2.434652
 C         1.973701         2.604811        -3.587026
 C         2.595397         1.158424        -3.218915
 C         1.910374         0.115629        -2.231155
 C         1.375785         1.104102        -1.027369
 C         2.258468         2.413454        -1.120062
 C         1.407890         0.459265         0.384709
 O         0.483227         0.342846         1.179556
 H         4.741763         2.778147        -3.173547
 H         0.982006         2.887039        -3.393281
 H         2.550745         2.996706        -4.418173
 H         3.387020         0.906284        -3.947472
 H         1.170197        -0.585189        -2.568296
 H         2.703190        -0.478202        -1.819185
 H         0.270799         1.267593        -1.114316
 H         1.787482         3.386721        -1.097692
 H         2.993147         2.490576        -0.341374
 H         2.534306        -0.042369         0.597031
