19
Iteration:  3399
 O         4.353204         2.821500        -2.575849
 C         3.046079         2.367044        -2.376160
 C         1.964704         2.391337        -3.434034
 C         2.680621         1.066223        -3.087063
 C         1.832956         0.289830        -2.061079
 C         1.333385         1.435218        -0.952168
 C         2.496849         2.384949        -0.937761
 C         1.414404         0.541579         0.298201
 O         0.382777         0.114044         0.821291
 H         4.445035         3.787944        -2.698755
 H         0.927664         2.344303        -3.047921
 H         2.134994         3.110849        -4.331031
 H         3.477086         0.715812        -3.634529
 H         0.923249        -0.250344        -2.361375
 H         2.444657        -0.523991        -1.554850
 H         0.262920         1.792502        -1.155775
 H         2.186335         3.430291        -0.811062
 H         3.229146         2.230805        -0.157592
 H         2.482155         0.671193         0.750055
