19
Iteration:  1166charge 0 multiplicity 1
 O         4.375722         2.958993        -2.593516
 C         3.109977         2.368530        -2.390265
 C         1.975909         2.583075        -3.438330
 C         2.497684         1.237091        -3.138667
 C         1.793644         0.274946        -2.134470
 C         1.418663         1.199088        -0.951256
 C         2.558066         2.244252        -0.968609
 C         1.408926         0.346166         0.331082
 O         0.346306         0.242965         0.942813
 H         4.529377         3.533099        -1.823309
 H         1.018090         2.982037        -3.064671
 H         2.257980         3.002776        -4.469550
 H         2.896780         0.704252        -3.931395
 H         0.997002        -0.330451        -2.568736
 H         2.664617        -0.390378        -1.790614
 H         0.346005         1.543837        -1.135823
 H         2.308421         3.176633        -0.354002
 H         3.446513         1.804893        -0.375886
 H         2.342954        -0.288513         0.536245
