19
Iteration:  4701
 O         4.332024         2.981485        -2.576249
 C         3.006819         2.387731        -2.434217
 C         1.955454         2.475304        -3.679236
 C         2.668390         1.129635        -3.139224
 C         2.014836         0.197755        -2.117540
 C         1.466337         1.146712        -0.922288
 C         2.568620         2.265855        -0.956830
 C         1.274630         0.384207         0.407320
 O         0.230433         0.442097         1.068857
 H         4.298952         3.898890        -2.322936
 H         0.885597         2.680321        -3.423713
 H         2.369943         2.691351        -4.614944
 H         3.269820         0.654937        -3.803473
 H         1.216546        -0.468677        -2.366854
 H         2.872816        -0.431929        -1.851780
 H         0.506930         1.602767        -1.176727
 H         2.090443         3.118184        -0.432992
 H         3.354931         1.755314        -0.343819
 H         2.184223        -0.111822         0.889932
