19
Iteration:  2709charge 0 multiplicity 1
 O         4.394020         2.849827        -2.626624
 C         3.053648         2.410605        -2.391266
 C         2.032184         2.398606        -3.520643
 C         2.660782         1.115028        -2.980223
 C         1.658402         0.354985        -1.996314
 C         1.421548         1.403634        -0.934643
 C         2.498858         2.385163        -0.952303
 C         1.381534         0.548910         0.375134
 O         0.372201         0.025332         0.823677
 H         4.412985         3.700445        -3.081236
 H         0.921975         2.448781        -3.439979
 H         2.427856         2.623189        -4.575270
 H         3.541567         0.661109        -3.598796
 H         0.758906         0.020993        -2.432754
 H         2.274725        -0.469516        -1.611351
 H         0.500441         2.003589        -1.117358
 H         2.096543         3.381746        -0.518495
 H         3.454685         2.066625        -0.363527
 H         2.382860         0.153745         0.718920
