19
Iteration:  1462
 O         4.361981         2.866856        -2.601061
 C         3.055348         2.454153        -2.343329
 C         1.897128         2.594905        -3.416648
 C         2.497282         1.242655        -3.117704
 C         1.778392         0.316611        -2.138869
 C         1.481347         1.117509        -0.934164
 C         2.650433         2.228917        -0.888549
 C         1.372181         0.290195         0.224511
 O         0.406433         0.322297         0.934362
 H         4.511986         3.781859        -2.342803
 H         0.877466         2.812675        -3.124725
 H         2.224920         3.214538        -4.250183
 H         3.060779         0.813152        -3.964858
 H         0.936257        -0.047718        -2.695475
 H         2.342673        -0.661975        -1.953041
 H         0.524976         1.692961        -1.107822
 H         2.164418         3.041423        -0.296249
 H         3.520632         1.750256        -0.330355
 H         2.273846        -0.358018         0.438871
