19
Iteration:  4188
 O         4.425711         2.932233        -2.556279
 C         3.077001         2.424916        -2.437907
 C         2.151019         2.481172        -3.662705
 C         2.647227         1.124077        -3.200453
 C         1.808720         0.247464        -2.131365
 C         1.355359         1.193214        -0.935267
 C         2.335837         2.384319        -0.980222
 C         1.281525         0.421262         0.433036
 O         0.384501         0.219767         1.190071
 H         4.274706         3.897525        -2.598108
 H         1.095055         2.645962        -3.612830
 H         2.765407         2.783711        -4.587468
 H         3.242460         0.527108        -3.792741
 H         1.028629        -0.296684        -2.656754
 H         2.576650        -0.515300        -1.809814
 H         0.379561         1.499770        -1.208753
 H         1.778977         3.295403        -0.873163
 H         3.231087         2.454780        -0.251277
 H         2.300667        -0.038485         0.570846
