19
Iteration:  4985charge 0 multiplicity 1
 O         4.310564         2.914297        -2.542334
 C         3.013311         2.416231        -2.399035
 C         2.057560         2.420477        -3.540733
 C         2.666425         1.062516        -3.056178
 C         1.923092         0.137229        -2.114398
 C         1.395037         1.212740        -1.043744
 C         2.418664         2.324218        -0.973352
 C         1.351754         0.604135         0.368851
 O         0.363309         0.311252         1.006267
 H         4.304488         3.834206        -2.746563
 H         0.971741         2.598291        -3.283572
 H         2.393009         2.948730        -4.460188
 H         3.443219         0.804012        -3.810640
 H         1.020184        -0.440218        -2.371829
 H         2.606828        -0.733599        -1.783582
 H         0.529989         1.590445        -1.485326
 H         1.917004         3.163930        -0.492612
 H         3.262633         2.083727        -0.310206
 H         2.372650         0.415055         0.758296
