19
Iteration:   712charge 0 multiplicity 1
 O         4.292236         2.849458        -2.471651
 C         3.003822         2.426742        -2.369897
 C         1.866408         2.640297        -3.369831
 C         2.524329         1.210832        -3.202694
 C         1.928566         0.305097        -2.226281
 C         1.552329         1.114700        -0.981393
 C         2.630564         2.165770        -0.944100
 C         1.312895         0.253569         0.289757
 O         0.378692         0.456885         0.986722
 H         4.454226         3.605907        -3.081903
 H         0.701667         2.840860        -2.985313
 H         2.154395         3.108350        -4.391280
 H         3.287788         0.921783        -3.979211
 H         1.167227        -0.385314        -2.535512
 H         2.736047        -0.326009        -1.823636
 H         0.513040         1.568149        -1.151071
 H         2.286254         3.031887        -0.315057
 H         3.555178         1.864064        -0.458085
 H         2.095226        -0.526189         0.469451
