19
Iteration:  2908
 O         4.269104         3.029077        -2.440224
 C         3.070218         2.293161        -2.352920
 C         1.987864         2.454489        -3.406779
 C         2.626244         1.011278        -3.148856
 C         1.812386         0.237295        -2.108366
 C         1.443869         1.330425        -1.033536
 C         2.614446         2.265154        -0.961843
 C         1.379829         0.577300         0.309676
 O         0.339183         0.236425         0.873694
 H         4.366615         3.454880        -3.331506
 H         0.954901         2.448065        -3.147213
 H         2.008962         2.842722        -4.421769
 H         3.342178         0.476562        -3.769990
 H         0.860203        -0.175025        -2.329786
 H         2.337036        -0.603147        -1.652794
 H         0.441911         1.784562        -1.319823
 H         2.397157         3.336872        -0.560837
 H         3.468018         1.824808        -0.404311
 H         2.386808         0.340702         0.768475
