19
Iteration:  3944charge 0 multiplicity 1
 O         4.376969         3.043028        -2.578641
 C         3.069871         2.345411        -2.397776
 C         2.003435         2.435248        -3.410367
 C         2.608912         1.052631        -3.033028
 C         1.843472         0.154090        -1.975312
 C         1.468774         1.260849        -0.986886
 C         2.566126         2.367087        -0.993259
 C         1.300988         0.476235         0.231677
 O         0.297224         0.248056         0.912116
 H         4.338835         3.652258        -3.315793
 H         1.121452         2.686793        -2.928925
 H         2.042578         2.722190        -4.450692
 H         3.212712         0.630365        -3.796796
 H         0.935873        -0.341033        -2.337588
 H         2.480818        -0.621839        -1.569871
 H         0.546293         1.828251        -1.383034
 H         2.119399         3.351730        -0.834412
 H         3.278621         2.184889        -0.172939
 H         2.314244         0.155435         0.567239
