19
Iteration:  2743
 O         4.382870         2.882673        -2.576558
 C         3.078002         2.341276        -2.391716
 C         2.144097         2.527971        -3.655702
 C         2.566797         1.135442        -3.151272
 C         1.643150         0.303996        -2.128773
 C         1.506045         1.265890        -0.870606
 C         2.489781         2.410938        -0.994670
 C         1.307855         0.614494         0.618906
 O         0.366132        -0.045927         0.907840
 H         4.492250         3.711104        -3.044125
 H         1.108355         2.759367        -3.848569
 H         2.766101         2.733183        -4.568964
 H         3.371382         0.515790        -3.640972
 H         0.663637        -0.034205        -2.470489
 H         2.112367        -0.657003        -1.770264
 H         0.562735         1.868675        -0.901184
 H         1.973302         3.441643        -0.780177
 H         3.417109         2.399160        -0.309048
 H         2.235779         0.664388         1.251628
