19
Iteration:  4774charge 0 multiplicity 1
 O         4.293089         3.042962        -2.475020
 C         2.987372         2.275110        -2.393159
 C         2.028780         2.444003        -3.523336
 C         2.733138         1.055350        -3.097056
 C         1.877954         0.162460        -2.222182
 C         1.422886         1.101432        -1.038287
 C         2.441881         2.299416        -0.993281
 C         1.304484         0.388145         0.281317
 O         0.425537         0.567867         1.102756
 H         4.171636         4.009151        -2.480627
 H         1.055820         2.509514        -3.184454
 H         2.336838         2.826503        -4.432669
 H         3.569066         0.814642        -3.646415
 H         1.199218        -0.426239        -2.833177
 H         2.253592        -0.683604        -1.605059
 H         0.449298         1.548129        -1.250339
 H         2.032844         3.290037        -0.647090
 H         3.247011         2.034111        -0.347353
 H         2.145725        -0.391698         0.550489
