19
Iteration:   600charge 0 multiplicity 1
 O         4.345983         2.903706        -2.616521
 C         2.999164         2.474845        -2.357705
 C         2.168630         2.519401        -3.540165
 C         2.601675         1.204679        -3.091935
 C         1.737680         0.380923        -2.202767
 C         1.280199         1.284756        -0.915794
 C         2.555836         2.249266        -0.900196
 C         1.319470         0.382759         0.302260
 O         0.468117         0.093081         1.107766
 H         4.147069         3.479657        -3.344074
 H         1.087142         2.917826        -3.551195
 H         2.689936         2.880471        -4.451885
 H         3.381227         0.721543        -3.643421
 H         0.808965        -0.024729        -2.672324
 H         2.292616        -0.480045        -1.865046
 H         0.253962         1.748939        -1.134352
 H         2.201736         3.147567        -0.377197
 H         3.285049         1.704942        -0.415342
 H         2.392726        -0.002576         0.412008
