19
Iteration:  4000
 O         4.321450         2.941768        -2.703477
 C         2.955985         2.464959        -2.396991
 C         2.020328         2.404707        -3.538718
 C         2.688744         1.119172        -3.053054
 C         1.901755         0.220943        -2.057637
 C         1.492853         1.204275        -0.919926
 C         2.593326         2.306859        -0.923501
 C         1.274917         0.604105         0.480729
 O         0.222543         0.161155         0.907395
 H         4.333990         3.915131        -2.401162
 H         1.030301         2.774308        -3.447455
 H         2.593038         2.657645        -4.433931
 H         3.380583         0.764416        -3.893857
 H         1.082169        -0.117123        -2.712150
 H         2.483309        -0.621086        -1.841718
 H         0.473334         1.607891        -1.228469
 H         2.556869         3.309407        -0.570110
 H         3.513799         1.863062        -0.567720
 H         2.219756         0.300113         1.073100
