19
Iteration:  4730
 O         4.249447         2.993697        -2.589156
 C         2.987108         2.382095        -2.339333
 C         2.048019         2.418935        -3.519286
 C         2.717259         1.125882        -3.079972
 C         1.936243         0.134696        -2.202595
 C         1.428303         1.147164        -1.016792
 C         2.535119         2.221305        -0.928557
 C         1.289672         0.474369         0.327347
 O         0.332269         0.503628         1.048971
 H         4.162013         3.965627        -2.701596
 H         1.020047         2.508891        -3.412508
 H         2.379766         2.861951        -4.434854
 H         3.450593         0.647363        -3.685811
 H         1.094804        -0.505722        -2.498358
 H         2.739787        -0.672771        -2.008806
 H         0.463163         1.627075        -1.223478
 H         2.106783         3.059728        -0.330461
 H         3.277202         1.876318        -0.253636
 H         2.209592        -0.163604         0.635779
