19
Iteration:  3614
 O         4.395681         2.943571        -2.586683
 C         3.109294         2.397695        -2.389115
 C         1.926834         2.408453        -3.344655
 C         2.616281         1.076212        -3.030351
 C         1.893108         0.193209        -2.148144
 C         1.369547         1.230519        -1.089060
 C         2.447048         2.349907        -0.934727
 C         1.385702         0.499441         0.266968
 O         0.377700         0.363725         0.931406
 H         4.476135         3.862413        -2.183374
 H         0.811924         2.352107        -3.153446
 H         1.942790         2.544827        -4.409539
 H         3.283764         0.577334        -3.672992
 H         1.131097        -0.344325        -2.759716
 H         2.504638        -0.583828        -1.639908
 H         0.338301         1.559417        -1.292162
 H         2.081872         3.289863        -0.425884
 H         3.269366         2.063631        -0.154937
 H         2.332113        -0.090991         0.531432
