19
Iteration:   421charge 0 multiplicity 1
 O         4.265115         3.048091        -2.535833
 C         3.061780         2.404299        -2.437844
 C         1.990751         2.471964        -3.441195
 C         2.562712         1.123104        -3.046384
 C         1.754693         0.303548        -1.976066
 C         1.452962         1.371217        -0.926138
 C         2.699682         2.245520        -0.992683
 C         1.339049         0.531919         0.331654
 O         0.370387         0.054819         0.806113
 H         4.772648         2.908441        -3.369992
 H         0.945650         2.692187        -3.220482
 H         2.184255         2.833821        -4.421315
 H         3.044772         0.502240        -3.821480
 H         0.853589        -0.234238        -2.307100
 H         2.346471        -0.426817        -1.490111
 H         0.530492         1.914187        -1.132236
 H         2.530267         3.138266        -0.346822
 H         3.475434         1.646517        -0.573098
 H         2.320778        -0.028650         0.553797
