19
Iteration:   777charge 0 multiplicity 1
 O         4.274327         2.898183        -2.582142
 C         2.946876         2.441597        -2.336239
 C         1.911229         2.539516        -3.538704
 C         2.723364         1.262051        -3.162428
 C         1.802393         0.337683        -2.278855
 C         1.415506         1.188279        -1.001001
 C         2.678219         2.059175        -0.798872
 C         1.333383         0.392917         0.279865
 O         0.388404         0.311637         1.086534
 H         4.282582         3.804280        -2.309660
 H         0.711952         2.548114        -3.371869
 H         2.392431         3.036230        -4.425236
 H         3.519771         0.723832        -3.700229
 H         0.844367         0.064767        -2.735213
 H         2.388461        -0.565446        -2.103586
 H         0.549547         1.959591        -1.200658
 H         2.628738         2.914665        -0.075475
 H         3.536730         1.518901        -0.442087
 H         2.321226        -0.011102         0.660773
