19
Iteration:  1675
 O         4.434866         2.885355        -2.641065
 C         3.081750         2.327224        -2.356488
 C         1.995480         2.615881        -3.431045
 C         2.448682         1.209228        -3.166437
 C         1.694301         0.375971        -2.173208
 C         1.430971         1.338826        -0.883833
 C         2.520868         2.357466        -0.946861
 C         1.405578         0.477555         0.400657
 O         0.416720        -0.032405         0.899804
 H         4.991190         2.378648        -2.048539
 H         1.118769         3.171895        -3.080719
 H         2.400871         3.099726        -4.376376
 H         3.042092         0.762808        -4.001588
 H         0.763680        -0.155003        -2.466667
 H         2.264399        -0.569888        -1.924277
 H         0.444611         1.714523        -1.136447
 H         2.194067         3.392216        -0.822057
 H         3.265223         2.021088        -0.113602
 H         2.473638         0.111719         0.841557
