19
Iteration:  1411charge 0 multiplicity 1
 O         4.351415         3.059927        -2.624070
 C         3.086392         2.422756        -2.383797
 C         2.029616         2.613522        -3.378894
 C         2.512911         1.148953        -3.174951
 C         1.712045         0.298098        -2.321206
 C         1.411134         1.127302        -0.966690
 C         2.626126         2.134682        -0.936328
 C         1.375410         0.343297         0.341073
 O         0.372231         0.288920         1.108749
 H         4.695784         3.443337        -1.836720
 H         1.045630         2.979235        -3.210512
 H         2.298795         2.871448        -4.341698
 H         3.139778         0.850890        -4.005983
 H         0.820858        -0.164803        -2.845144
 H         2.408502        -0.515780        -2.086296
 H         0.511388         1.722005        -1.201759
 H         2.365908         2.959915        -0.281805
 H         3.319747         1.473825        -0.441948
 H         2.285720        -0.252893         0.677564
