19
Iteration:   525charge 0 multiplicity 1
 O         4.341514         2.629702        -2.539314
 C         2.970869         2.483781        -2.317175
 C         2.003509         2.522308        -3.530789
 C         2.496759         1.184637        -3.060045
 C         1.811249         0.302952        -2.094393
 C         1.379809         1.395400        -0.916244
 C         2.429971         2.499517        -0.996936
 C         1.497386         0.526228         0.317523
 O         0.498884         0.008950         0.816468
 H         4.723239         3.338939        -1.950562
 H         0.861214         2.818134        -3.238688
 H         2.435274         2.932406        -4.504705
 H         3.099943         0.654690        -3.776763
 H         0.936018        -0.280249        -2.351587
 H         2.530888        -0.375232        -1.536092
 H         0.326974         1.653639        -1.192060
 H         2.085390         3.489343        -0.581929
 H         3.410620         2.238127        -0.379302
 H         2.584513         0.325365         0.577378
