19
Iteration:  4710charge 0 multiplicity 1
 O         4.275557         2.952282        -2.572767
 C         3.011426         2.414774        -2.498846
 C         1.993220         2.450090        -3.580277
 C         2.714779         1.144465        -3.171593
 C         1.996265         0.257552        -2.077150
 C         1.451149         1.111224        -0.973501
 C         2.524510         2.210965        -0.955289
 C         1.271694         0.367193         0.427304
 O         0.257327         0.469690         1.064713
 H         4.138227         3.886144        -2.437966
 H         1.024680         2.776976        -3.622380
 H         2.405350         2.838317        -4.460929
 H         3.430039         0.672246        -3.704817
 H         1.224825        -0.370571        -2.542731
 H         2.768531        -0.559912        -1.683052
 H         0.460638         1.511990        -1.166945
 H         2.323537         3.125730        -0.284021
 H         3.498114         1.937420        -0.511251
 H         2.150867        -0.034842         0.826418
