19
Iteration:  3738
 O         4.306386         3.015562        -2.410199
 C         3.003890         2.389173        -2.317931
 C         2.000883         2.435749        -3.504112
 C         2.652790         1.079104        -3.035397
 C         1.848512         0.134547        -2.233758
 C         1.330210         1.105761        -1.109727
 C         2.456628         2.251433        -0.954336
 C         1.344879         0.441181         0.214839
 O         0.502537         0.537797         1.084445
 H         4.449491         3.398966        -3.314124
 H         0.983246         2.791953        -3.388532
 H         2.453644         2.819416        -4.408239
 H         3.601277         0.723763        -3.466606
 H         0.961610        -0.323100        -2.784364
 H         2.535229        -0.691099        -2.058554
 H         0.474756         1.573997        -1.335531
 H         1.774496         3.047937        -0.638942
 H         3.394328         2.006377        -0.172806
 H         2.290779        -0.228494         0.409820
