19
Iteration:   515charge 0 multiplicity 1
 O         4.370891         2.657342        -2.608327
 C         3.003404         2.413130        -2.422433
 C         2.057237         2.583499        -3.506304
 C         2.562456         1.186562        -3.055354
 C         1.769528         0.395775        -2.003437
 C         1.325111         1.388882        -0.995552
 C         2.428727         2.501790        -0.975301
 C         1.424433         0.486568         0.370750
 O         0.490858        -0.068593         0.887961
 H         4.509149         3.573454        -2.287387
 H         0.914242         2.893104        -3.360537
 H         2.496662         2.846835        -4.514376
 H         3.102171         0.715899        -3.840314
 H         1.060778        -0.324596        -2.379459
 H         2.669847        -0.229573        -1.586811
 H         0.304529         1.800035        -1.062748
 H         2.122325         3.514464        -0.605549
 H         3.216630         2.075719        -0.190191
 H         2.481134         0.228822         0.729448
