19
Iteration:  1253charge 0 multiplicity 1
 O         4.284078         2.957281        -2.444874
 C         3.111209         2.305259        -2.383813
 C         2.058280         2.585977        -3.385542
 C         2.568517         1.108007        -3.221297
 C         1.762891         0.341331        -2.194298
 C         1.320084         1.288729        -1.029458
 C         2.551169         2.303168        -0.926595
 C         1.332325         0.338213         0.231328
 O         0.486955         0.210836         1.101838
 H         4.463004         3.419383        -3.244735
 H         1.026819         2.969658        -3.081205
 H         2.478784         2.885136        -4.346786
 H         3.186770         0.806032        -4.013047
 H         0.905290        -0.056368        -2.659047
 H         2.302818        -0.660017        -1.989471
 H         0.342985         1.764329        -1.318767
 H         2.261740         3.314561        -0.602922
 H         3.373458         1.755807        -0.388929
 H         2.384053        -0.132116         0.394976
