19
Iteration:  4210
 O         4.300682         2.894648        -2.456306
 C         3.020869         2.363086        -2.426455
 C         2.105769         2.511622        -3.556492
 C         2.695147         1.089106        -3.071239
 C         1.856359         0.233213        -2.168122
 C         1.347637         1.201101        -1.015452
 C         2.384574         2.390486        -1.103288
 C         1.359194         0.399897         0.383789
 O         0.406232         0.312956         1.121828
 H         4.153703         3.673527        -3.035411
 H         1.175493         2.912654        -3.206076
 H         2.568835         2.816680        -4.555940
 H         3.431129         0.651456        -3.676693
 H         1.006669        -0.249340        -2.675617
 H         2.567164        -0.560145        -1.902022
 H         0.347788         1.533421        -1.170783
 H         2.047179         3.375005        -0.827542
 H         3.313468         2.158397        -0.408699
 H         2.356627         0.107120         0.640023
