19
Iteration:  2111
 O         4.385170         2.900043        -2.564932
 C         2.995545         2.395733        -2.488780
 C         2.012541         2.591010        -3.636542
 C         2.514152         1.092364        -3.134476
 C         1.854427         0.253877        -2.051793
 C         1.526633         1.261293        -0.877385
 C         2.554221         2.361333        -0.937240
 C         1.320855         0.385689         0.401607
 O         0.297253         0.167347         0.971527
 H         4.449004         3.563276        -1.864079
 H         1.042434         3.120458        -3.359447
 H         2.425316         3.058540        -4.561620
 H         3.147147         0.679857        -3.936996
 H         1.021279        -0.197338        -2.564740
 H         2.659219        -0.440020        -1.694873
 H         0.539138         1.692915        -1.269046
 H         2.199478         3.364703        -0.637763
 H         3.532336         2.158001        -0.351916
 H         2.236310        -0.176607         0.759480
