19
Iteration:  3981charge 0 multiplicity 1
 O         4.306203         2.910177        -2.637397
 C         3.007395         2.493502        -2.429111
 C         2.048962         2.435009        -3.696822
 C         2.626508         1.168722        -3.065843
 C         1.890402         0.285810        -2.068811
 C         1.536815         1.224515        -0.861535
 C         2.620302         2.261661        -0.884617
 C         1.315798         0.459279         0.461649
 O         0.187703         0.209103         0.908501
 H         4.165903         3.802341        -3.069401
 H         0.872178         2.491188        -3.575069
 H         2.343982         2.893018        -4.655216
 H         3.625293         0.711068        -3.493701
 H         0.979225        -0.395198        -2.294255
 H         2.680885        -0.487449        -1.701822
 H         0.540578         1.622889        -0.984901
 H         2.133234         3.135002        -0.372632
 H         3.563900         1.956540        -0.478417
 H         2.147642         0.423266         1.155961
