19
Iteration:  3710
 O         4.239546         2.990500        -2.425099
 C         3.013965         2.286958        -2.352082
 C         1.977297         2.439081        -3.418046
 C         2.800848         1.011189        -3.135146
 C         1.887825         0.307451        -2.160828
 C         1.323926         1.141432        -1.061102
 C         2.486524         2.250301        -0.936552
 C         1.341097         0.368205         0.195900
 O         0.477050         0.555712         1.017958
 H         4.310812         3.540478        -3.270868
 H         0.896422         2.424598        -3.156026
 H         2.171205         2.932433        -4.356095
 H         3.489454         0.621517        -3.853173
 H         1.022232        -0.126352        -2.631093
 H         2.480074        -0.610519        -1.944821
 H         0.260920         1.712316        -1.220562
 H         1.957960         3.154943        -0.539257
 H         3.197386         2.122358        -0.203182
 H         2.289904        -0.153353         0.444400
