19
Iteration:  2583charge 0 multiplicity 1
 O         4.380938         2.993029        -2.554161
 C         3.084187         2.334608        -2.379477
 C         1.899028         2.434692        -3.392790
 C         2.640698         1.050143        -3.054473
 C         1.850395         0.223665        -2.068766
 C         1.391240         1.215755        -1.078508
 C         2.576945         2.305529        -0.956563
 C         1.334718         0.408685         0.193835
 O         0.371588         0.402786         0.963831
 H         4.199915         3.961839        -2.480563
 H         0.984934         2.733943        -2.985151
 H         2.148545         2.818272        -4.414448
 H         3.285445         0.634644        -3.870698
 H         0.899334        -0.308035        -2.526901
 H         2.335652        -0.539651        -1.440992
 H         0.381385         1.659825        -1.154342
 H         2.220058         3.305831        -0.668155
 H         3.503650         2.012486        -0.262039
 H         2.193834        -0.280804         0.418076
