19
Iteration:   550charge 0 multiplicity 1
 O         4.382772         2.736236        -2.451493
 C         3.015871         2.356818        -2.394104
 C         1.915043         2.563476        -3.520797
 C         2.554959         1.155960        -3.097028
 C         1.700769         0.348652        -2.154927
 C         1.489713         1.270480        -0.965550
 C         2.439777         2.458319        -1.005171
 C         1.554504         0.521871         0.387841
 O         0.476940         0.090719         0.822437
 H         4.420181         3.319612        -1.654501
 H         0.847344         2.744253        -3.141802
 H         2.160493         2.838990        -4.565848
 H         3.029940         0.622997        -3.925163
 H         0.740694        -0.052504        -2.507602
 H         2.293912        -0.576264        -1.646873
 H         0.468646         1.599286        -1.117802
 H         1.874671         3.382360        -0.798723
 H         3.321041         2.356201        -0.171227
 H         2.564371         0.422098         0.913866
