19
Iteration:  2440charge 0 multiplicity 1
 O         4.306635         2.994309        -2.416115
 C         2.976497         2.346840        -2.401696
 C         2.197147         2.565125        -3.591893
 C         2.662294         1.129910        -3.180471
 C         1.811228         0.260296        -2.214498
 C         1.391123         1.101236        -0.990624
 C         2.337033         2.277871        -1.109384
 C         1.305454         0.328507         0.398613
 O         0.461310         0.414433         1.240376
 H         4.584626         2.937021        -3.362181
 H         1.112565         2.761517        -3.651352
 H         2.735119         3.070092        -4.308162
 H         3.194990         0.464450        -3.877508
 H         0.988603        -0.210075        -2.802789
 H         2.442695        -0.490433        -1.889786
 H         0.448935         1.620507        -1.185483
 H         2.032888         3.281118        -0.803261
 H         3.285104         2.117953        -0.427776
 H         2.231603        -0.196394         0.551020
