19
Iteration:  2789
 O         4.363676         2.713924        -2.524105
 C         2.989942         2.373978        -2.378230
 C         2.042330         2.421686        -3.488040
 C         2.617316         1.062321        -3.038200
 C         1.762431         0.342183        -2.058094
 C         1.268222         1.416863        -1.016546
 C         2.488580         2.390222        -0.944301
 C         1.369212         0.730431         0.303816
 O         0.539051        -0.009615         0.839318
 H         4.615335         3.613400        -2.327286
 H         1.093456         2.758555        -3.129270
 H         2.223981         3.024760        -4.289584
 H         3.288380         0.614757        -3.676339
 H         0.838647        -0.179768        -2.507399
 H         2.506232        -0.453993        -1.777125
 H         0.344113         1.895774        -1.430119
 H         2.006864         3.424055        -0.702351
 H         3.358222         2.220961        -0.259552
 H         2.343398         0.945264         0.817221
