19
Iteration:  1595charge 0 multiplicity 1
 O         4.428886         2.861454        -2.657837
 C         3.118533         2.443494        -2.425416
 C         2.132494         2.694145        -3.522477
 C         2.534321         1.263476        -3.053850
 C         1.563401         0.376886        -2.144085
 C         1.397991         1.256292        -0.772047
 C         2.622535         2.300267        -0.969449
 C         1.335102         0.389461         0.410142
 O         0.388208        -0.074520         0.973932
 H         4.163804         3.413372        -3.379841
 H         1.154584         2.886002        -3.216200
 H         2.385316         2.974140        -4.462747
 H         3.186995         0.796467        -3.756915
 H         0.688807         0.191855        -2.686549
 H         2.070678        -0.627424        -2.030153
 H         0.395678         1.710464        -1.090319
 H         2.161617         3.292224        -0.758760
 H         3.399136         1.939915        -0.149471
 H         2.389100         0.138003         0.538124
