19
Iteration:  1465
 O         4.383398         2.869754        -2.600886
 C         3.053079         2.458696        -2.366993
 C         1.887162         2.624894        -3.434570
 C         2.499467         1.225839        -3.105799
 C         1.776856         0.319126        -2.157667
 C         1.481812         1.099157        -0.925479
 C         2.641583         2.224821        -0.875704
 C         1.401897         0.284996         0.228500
 O         0.375802         0.323157         0.948261
 H         4.477166         3.818853        -2.435171
 H         0.900292         2.826378        -3.080402
 H         2.221904         3.195914        -4.218689
 H         3.043969         0.788258        -3.911687
 H         0.888269        -0.079034        -2.689065
 H         2.370973        -0.673935        -1.988074
 H         0.567280         1.684252        -1.101452
 H         2.183654         3.051831        -0.313963
 H         3.495488         1.811629        -0.238939
 H         2.319114        -0.356254         0.401008
