19
Iteration:  3360
 O         4.362579         2.942021        -2.670791
 C         3.026688         2.478207        -2.468304
 C         2.121773         2.477477        -3.675087
 C         2.621577         1.106440        -3.111039
 C         1.783883         0.253118        -1.999830
 C         1.466672         1.220197        -0.775223
 C         2.631150         2.489948        -0.964687
 C         1.269046         0.407008         0.403364
 O         0.230258         0.077710         0.982773
 H         4.281169         3.896526        -2.773887
 H         1.086406         2.842443        -3.654346
 H         2.653493         2.869092        -4.466417
 H         3.445197         0.416156        -3.550145
 H         0.874299        -0.272859        -2.380066
 H         2.384617        -0.630887        -1.690501
 H         0.455482         1.652547        -0.924150
 H         2.045845         3.423751        -0.612310
 H         3.558885         2.281262        -0.389901
 H         2.191276         0.016752         0.868156
