19
Iteration:  2506
 O         4.317213         2.992670        -2.379487
 C         3.057623         2.319780        -2.412837
 C         2.050263         2.529058        -3.529414
 C         2.595567         1.054407        -3.139575
 C         1.871017         0.169497        -2.219394
 C         1.396233         1.160290        -1.080952
 C         2.493423         2.213890        -0.993523
 C         1.313874         0.423235         0.281566
 O         0.425837         0.477265         1.144542
 H         4.154292         3.808969        -2.855851
 H         0.980618         2.664675        -3.381205
 H         2.332890         2.966898        -4.462134
 H         3.037193         0.626488        -4.071880
 H         0.955487        -0.365000        -2.533686
 H         2.574400        -0.495876        -1.844651
 H         0.396104         1.568537        -1.284341
 H         2.013862         3.115501        -0.612355
 H         3.461800         2.061589        -0.335737
 H         2.387123         0.096447         0.614115
