19
Iteration:  2853
 O         4.397078         2.887992        -2.628520
 C         3.056869         2.403859        -2.423568
 C         2.118810         2.445938        -3.642862
 C         2.601321         1.112044        -3.057224
 C         1.764531         0.322302        -2.069566
 C         1.393717         1.379584        -0.799371
 C         2.572867         2.497730        -1.009634
 C         1.336219         0.430469         0.568688
 O         0.266284        -0.060259         0.868339
 H         4.287197         3.549470        -3.343281
 H         1.179171         2.940106        -3.471414
 H         2.645502         2.806639        -4.480038
 H         3.084960         0.414206        -3.635790
 H         0.878249         0.028156        -2.471605
 H         2.344642        -0.389871        -1.569459
 H         0.401196         1.917274        -0.971451
 H         2.092222         3.573683        -0.970259
 H         3.521778         2.660010        -0.411016
 H         2.333306         0.141800         1.022180
