19
Iteration:  4433
 O         4.311064         2.957607        -2.578155
 C         3.091912         2.326912        -2.336153
 C         2.058294         2.359424        -3.485427
 C         2.685406         1.075690        -3.066656
 C         1.796242         0.197195        -2.115401
 C         1.385844         1.282340        -1.015668
 C         2.456270         2.392900        -0.922929
 C         1.346997         0.431767         0.233014
 O         0.413241         0.350011         1.004595
 H         4.213551         3.927150        -2.397541
 H         1.042134         2.573626        -3.333394
 H         2.333524         2.767397        -4.499200
 H         3.278211         0.741570        -3.779971
 H         0.840788        -0.209307        -2.452324
 H         2.426502        -0.530377        -1.698833
 H         0.471253         1.647298        -1.394184
 H         1.918641         3.315123        -0.527066
 H         3.211178         2.165683        -0.137092
 H         2.343525        -0.109841         0.240239
