19
Iteration:  1814charge 0 multiplicity 1
 O         4.347020         2.841442        -2.601473
 C         2.976440         2.437544        -2.379093
 C         2.015100         2.638523        -3.447823
 C         2.495613         1.316405        -3.223907
 C         1.853264         0.295679        -2.254404
 C         1.492373         1.077022        -0.993264
 C         2.640839         2.149117        -0.878885
 C         1.327105         0.341440         0.374531
 O         0.294137         0.318828         1.078306
 H         4.432723         3.759973        -2.247410
 H         1.018495         2.876028        -3.130121
 H         2.382875         3.165142        -4.290264
 H         3.306626         0.951726        -3.966512
 H         1.120488        -0.360212        -2.685402
 H         2.669263        -0.405621        -2.031845
 H         0.525733         1.665451        -1.151355
 H         2.259631         3.041191        -0.338114
 H         3.576517         1.842400        -0.499154
 H         2.347879        -0.166969         0.676547
