19
Iteration:   661charge 0 multiplicity 1
 O         4.313660         3.091906        -2.461669
 C         3.115483         2.370386        -2.363070
 C         2.014845         2.636455        -3.369724
 C         2.525321         1.138946        -3.197829
 C         1.755212         0.162963        -2.267038
 C         1.391434         1.064504        -0.971456
 C         2.599584         2.160643        -1.000801
 C         1.398543         0.375761         0.314874
 O         0.376298         0.376987         1.028509
 H         4.595941         3.211065        -3.363077
 H         1.132283         2.780527        -2.880538
 H         2.230808         3.278614        -4.181373
 H         2.951626         0.693591        -4.109502
 H         0.808057        -0.286164        -2.629048
 H         2.510044        -0.648368        -1.967679
 H         0.442941         1.471374        -1.205609
 H         2.313294         3.096322        -0.527040
 H         3.512401         2.038340        -0.289610
 H         2.371931        -0.041228         0.683149
