19
Iteration:  3165charge 0 multiplicity 1
 O         4.197161         3.025715        -2.280179
 C         2.975787         2.304144        -2.324680
 C         2.154281         2.522233        -3.580903
 C         2.653283         1.109025        -3.229519
 C         1.868109         0.126807        -2.409153
 C         1.350150         0.944298        -1.047994
 C         2.413683         2.149330        -0.969913
 C         1.335819         0.384705         0.340566
 O         0.564270         0.736551         1.173826
 H         3.883828         3.822836        -2.734026
 H         1.136228         2.802098        -3.524591
 H         2.613886         2.883693        -4.552329
 H         3.540282         0.866160        -3.902438
 H         0.951060        -0.232123        -2.945419
 H         2.470432        -0.746730        -2.231738
 H         0.366604         1.354845        -1.232375
 H         1.893107         2.928286        -0.511904
 H         3.231881         1.899478        -0.201000
 H         2.235079        -0.242916         0.545825
