19
Iteration:  3015
 O         4.215457         3.126966        -2.294930
 C         3.118572         2.299569        -2.382224
 C         1.976165         2.408489        -3.533461
 C         2.651169         1.082904        -3.140157
 C         1.837162         0.132250        -2.262750
 C         1.401951         1.042820        -1.108648
 C         2.523863         2.157804        -0.928564
 C         1.382250         0.466186         0.287812
 O         0.435665         0.598058         1.043630
 H         4.185537         3.780667        -3.013038
 H         1.150643         2.760311        -3.024408
 H         2.216035         2.924054        -4.458665
 H         3.212882         0.700488        -4.012182
 H         1.002155        -0.246607        -2.865575
 H         2.392549        -0.739371        -1.792361
 H         0.472697         1.517408        -1.389419
 H         2.192589         3.056538        -0.446286
 H         3.355482         1.825654        -0.348416
 H         2.224313        -0.241922         0.530773
