19
Iteration:   899charge 0 multiplicity 1
 O         4.326524         2.873526        -2.462321
 C         3.060691         2.344249        -2.469672
 C         2.055448         2.603698        -3.584981
 C         2.480274         1.155251        -3.141364
 C         1.695318         0.373705        -2.104088
 C         1.477387         1.348979        -0.844113
 C         2.560926         2.259852        -1.012845
 C         1.399944         0.433015         0.313466
 O         0.445666         0.055934         0.957739
 H         4.302687         3.518597        -1.746107
 H         1.153294         3.091270        -3.217859
 H         2.378071         2.957102        -4.626834
 H         3.103589         0.729078        -3.887652
 H         0.738932         0.102505        -2.432714
 H         2.172895        -0.589576        -1.770217
 H         0.449571         1.719884        -1.035464
 H         2.229298         3.310837        -0.897552
 H         3.467538         2.120340        -0.396909
 H         2.407440        -0.061322         0.538258
