19
Iteration:  1498
 O         4.356941         2.903363        -2.576264
 C         3.073362         2.412656        -2.423280
 C         2.042810         2.703024        -3.347404
 C         2.500006         1.265381        -3.213591
 C         1.816196         0.321601        -2.264651
 C         1.462415         1.052585        -0.970487
 C         2.612880         2.230539        -0.981189
 C         1.312497         0.321219         0.425611
 O         0.326321         0.196918         1.071775
 H         4.321328         3.369545        -3.401421
 H         1.098695         2.996583        -2.983077
 H         2.518798         3.344485        -3.965555
 H         2.843566         0.678322        -4.029649
 H         0.778961         0.049050        -2.523832
 H         2.586945        -0.582851        -2.115689
 H         0.439075         1.516099        -1.056355
 H         2.304093         3.243034        -0.614158
 H         3.463486         2.070233        -0.219651
 H         2.385407         0.025854         0.617356
