19
Iteration:  3117charge 0 multiplicity 1
 O         4.321893         2.882482        -2.378017
 C         2.999150         2.424240        -2.345092
 C         2.013249         2.401763        -3.578746
 C         2.724002         1.121412        -3.110030
 C         1.904644         0.192637        -2.243831
 C         1.342482         1.098057        -1.127925
 C         2.259318         2.356797        -0.959047
 C         1.284114         0.307790         0.173432
 O         0.645924         0.593999         1.189690
 H         4.391634         3.820627        -2.053239
 H         0.947267         2.723884        -3.302388
 H         2.334790         2.940792        -4.478823
 H         3.359196         0.671084        -3.837952
 H         1.230989        -0.543395        -2.704737
 H         2.701479        -0.368407        -1.687234
 H         0.260949         1.376747        -1.474282
 H         1.769590         3.365961        -0.802762
 H         2.856811         2.206000        -0.128072
 H         1.864665        -0.636726         0.118944
