19
Iteration:   431
 O         4.252297         3.042397        -2.462857
 C         2.999515         2.401251        -2.402204
 C         1.957977         2.387493        -3.517468
 C         2.524052         1.081645        -3.031595
 C         1.739204         0.333104        -2.053150
 C         1.458561         1.401611        -0.879622
 C         2.714005         2.210893        -0.928274
 C         1.409942         0.534588         0.246416
 O         0.379683         0.074751         0.782670
 H         4.684310         2.797524        -3.302529
 H         0.950179         2.628513        -3.096161
 H         2.301595         2.827330        -4.440920
 H         3.193518         0.638709        -3.771559
 H         0.788445        -0.023321        -2.430063
 H         2.378519        -0.478263        -1.683316
 H         0.581324         2.015240        -0.927361
 H         2.772618         3.221774        -0.512105
 H         3.626083         1.778778        -0.568231
 H         2.479283         0.517037         0.737536
