19
Iteration:  2004
 O         4.282440         2.977061        -2.403913
 C         3.054831         2.392028        -2.477001
 C         2.206948         2.577684        -3.613440
 C         2.533109         1.119790        -3.211899
 C         1.640785         0.326526        -2.209308
 C         1.453664         1.178791        -0.986561
 C         2.390261         2.372580        -0.989970
 C         1.400722         0.348597         0.350961
 O         0.465635         0.218193         1.181397
 H         5.012248         2.374534        -2.252182
 H         1.197334         3.082439        -3.547256
 H         2.801230         2.774546        -4.584261
 H         3.283112         0.724937        -3.935779
 H         0.766894        -0.180117        -2.589196
 H         2.251949        -0.501575        -1.842942
 H         0.411650         1.571208        -1.111003
 H         1.995193         3.311891        -0.664060
 H         3.240787         2.163780        -0.346610
 H         2.417571        -0.225968         0.421697
