19
Iteration:  2117charge 0 multiplicity 1
 O         4.366688         2.892769        -2.568748
 C         2.982418         2.405817        -2.456998
 C         1.998360         2.545459        -3.638739
 C         2.517461         1.155657        -3.177176
 C         1.903757         0.326552        -2.082497
 C         1.531883         1.224450        -0.843056
 C         2.576713         2.377351        -0.952762
 C         1.330729         0.392463         0.376385
 O         0.253372         0.166645         0.983540
 H         4.649035         3.413859        -1.809526
 H         1.109302         2.918952        -3.242605
 H         2.392483         2.993037        -4.554274
 H         3.182435         0.589910        -3.811715
 H         1.006209        -0.426433        -2.231944
 H         2.579026        -0.521836        -1.853495
 H         0.603840         1.613477        -1.155351
 H         2.266783         3.395739        -0.653025
 H         3.435750         2.038981        -0.462630
 H         2.266621        -0.095431         0.762069
