19
Iteration:  1544charge 0 multiplicity 1
 O         4.337347         2.888800        -2.380168
 C         2.982576         2.353897        -2.421559
 C         1.854690         2.635909        -3.423782
 C         2.524261         1.132724        -3.101906
 C         1.641302         0.392577        -2.114674
 C         1.504239         1.302995        -0.972254
 C         2.681909         2.220917        -0.939251
 C         1.472329         0.409179         0.196698
 O         0.439661         0.155712         0.875982
 H         4.665651         2.793078        -3.273046
 H         0.845249         2.922316        -3.112842
 H         2.226696         3.135019        -4.365533
 H         3.246053         0.618951        -3.774410
 H         0.770348         0.036130        -2.747957
 H         2.266257        -0.448251        -1.641499
 H         0.656186         1.930234        -1.080163
 H         2.425042         3.070369        -0.315652
 H         3.509989         1.778184        -0.403507
 H         2.533787         0.077090         0.438468
