19
Iteration:  4614charge 0 multiplicity 1
 O         4.321728         2.986405        -2.575828
 C         3.022547         2.363133        -2.463343
 C         2.094283         2.428940        -3.627590
 C         2.647494         1.044951        -3.085766
 C         1.872412         0.306917        -2.084498
 C         1.423478         1.291067        -0.831727
 C         2.575487         2.294314        -1.092046
 C         1.314036         0.529794         0.512891
 O         0.242428         0.162368         0.974074
 H         4.196769         3.865208        -2.936738
 H         1.125426         2.822434        -3.408892
 H         2.411197         2.816752        -4.633364
 H         3.418415         0.646576        -3.697954
 H         1.038275        -0.285484        -2.389847
 H         2.437364        -0.390308        -1.562833
 H         0.383339         1.552766        -1.056653
 H         2.406401         3.332511        -0.731575
 H         3.468047         2.002050        -0.468752
 H         2.201765         0.148764         0.912178
