19
Iteration:  4594charge 0 multiplicity 1
 O         4.313367         2.971886        -2.574176
 C         3.076964         2.379717        -2.438023
 C         2.117047         2.393275        -3.707581
 C         2.586489         1.064078        -3.121842
 C         1.794135         0.289097        -1.993414
 C         1.444941         1.262639        -0.879828
 C         2.569455         2.414015        -0.952251
 C         1.346519         0.496630         0.468509
 O         0.274945         0.157414         0.924729
 H         4.272844         3.913394        -2.756653
 H         1.015857         2.575614        -3.808986
 H         2.635153         2.673611        -4.664391
 H         3.093356         0.482893        -3.767497
 H         0.876175        -0.235845        -2.319490
 H         2.504804        -0.441552        -1.607278
 H         0.451445         1.695436        -1.074533
 H         2.167811         3.153911        -0.427940
 H         3.405048         2.136297        -0.312438
 H         2.450103         0.385989         0.954051
