19
Iteration:  4747
 O         4.307000         3.062675        -2.566391
 C         3.037615         2.318725        -2.318487
 C         1.976714         2.349001        -3.467813
 C         2.708251         1.043050        -3.084952
 C         1.907906         0.199435        -2.174615
 C         1.422422         1.071349        -1.084341
 C         2.471445         2.266084        -0.830158
 C         1.301846         0.449809         0.238759
 O         0.405271         0.550893         1.021386
 H         4.157411         4.010399        -2.713585
 H         0.894966         2.476076        -3.047531
 H         2.430338         2.790545        -4.435519
 H         3.393396         0.742605        -4.013841
 H         1.070305        -0.149419        -2.831541
 H         2.251511        -0.651707        -1.618607
 H         0.472445         1.532517        -1.410839
 H         1.982201         3.203035        -0.618309
 H         3.338029         1.892810        -0.135665
 H         2.217377        -0.020631         0.540397
