19
Iteration:  2023charge 0 multiplicity 1
 O         4.365102         3.091004        -2.347413
 C         3.053467         2.335573        -2.447755
 C         2.180784         2.523571        -3.676329
 C         2.465662         1.158308        -3.140506
 C         1.659195         0.291291        -2.144413
 C         1.330220         1.214942        -0.902822
 C         2.463926         2.307298        -0.973104
 C         1.461212         0.327343         0.287919
 O         0.476534         0.253434         1.064310
 H         4.826671         2.396960        -2.847309
 H         1.119753         2.833242        -3.727686
 H         2.866747         2.731228        -4.618618
 H         2.930924         0.564568        -3.882445
 H         0.741417        -0.117024        -2.513526
 H         2.286545        -0.600684        -2.088379
 H         0.222782         1.623063        -0.835388
 H         1.922391         3.298968        -0.869232
 H         3.394129         2.080071        -0.240648
 H         2.366182        -0.203960         0.462644
