19
Iteration:  2077
 O         4.406446         2.888652        -2.548292
 C         3.072290         2.357026        -2.365773
 C         2.029661         2.453559        -3.459458
 C         2.628757         1.111334        -3.120385
 C         1.761313         0.318018        -2.202303
 C         1.344560         1.285302        -1.051000
 C         2.433101         2.343958        -0.864655
 C         1.413155         0.491959         0.311604
 O         0.420147         0.180996         0.986520
 H         4.152040         3.575564        -3.212418
 H         1.072099         2.717027        -3.036177
 H         2.346944         3.147805        -4.304329
 H         3.367026         0.584001        -3.665236
 H         0.859110        -0.041764        -2.716095
 H         2.291509        -0.623457        -1.835199
 H         0.284207         1.718439        -1.039903
 H         1.944197         3.205274        -0.309676
 H         3.250279         2.004984        -0.127494
 H         2.534220         0.263469         0.589435
