19
Iteration:  2006charge 0 multiplicity 1
 O         4.285859         2.985770        -2.393015
 C         3.059020         2.394795        -2.459249
 C         2.200169         2.564247        -3.634732
 C         2.501735         1.117916        -3.205477
 C         1.645605         0.338236        -2.205808
 C         1.450946         1.168822        -0.978389
 C         2.401060         2.367211        -1.005227
 C         1.399180         0.345095         0.348565
 O         0.465357         0.220185         1.173133
 H         5.092937         2.434649        -2.315263
 H         1.246135         3.137826        -3.586910
 H         2.801411         2.753649        -4.498779
 H         3.266704         0.674515        -3.929366
 H         0.739531        -0.183484        -2.641915
 H         2.275695        -0.497150        -1.787400
 H         0.483451         1.559124        -1.111536
 H         2.035253         3.306397        -0.644996
 H         3.203413         2.222189        -0.365886
 H         2.452934        -0.247491         0.425574
