19
Iteration:  3535
 O         4.328130         2.924778        -2.547436
 C         3.073171         2.351020        -2.400905
 C         2.059286         2.394959        -3.505925
 C         2.670830         1.070245        -3.088857
 C         1.780982         0.258362        -2.140328
 C         1.389478         1.323375        -0.919636
 C         2.488946         2.427036        -0.940084
 C         1.350494         0.525206         0.346097
 O         0.368460         0.138831         0.933641
 H         4.175860         3.810987        -2.983186
 H         1.096444         2.699966        -3.289147
 H         2.510657         2.640842        -4.476653
 H         3.342655         0.635084        -3.822526
 H         0.848559        -0.077797        -2.607741
 H         2.400206        -0.570267        -1.697804
 H         0.303713         1.688675        -1.113395
 H         2.144195         3.426617        -0.495778
 H         3.425786         2.076581        -0.448557
 H         2.363870         0.447020         0.884087
