19
Iteration:  2557
 O         4.273259         2.908133        -2.617555
 C         2.975794         2.404526        -2.322716
 C         2.016993         2.386542        -3.526311
 C         2.724010         1.144836        -3.131381
 C         1.898937         0.290782        -2.247717
 C         1.454740         1.157666        -0.978464
 C         2.579629         2.255727        -0.907927
 C         1.305599         0.411456         0.336267
 O         0.320848         0.432412         1.088425
 H         4.323485         3.841748        -2.323504
 H         0.886821         2.493545        -3.408105
 H         2.386309         2.953671        -4.344999
 H         3.624479         0.816673        -3.647591
 H         0.852638         0.065042        -2.706196
 H         2.368161        -0.719805        -1.905133
 H         0.444682         1.607285        -1.145942
 H         2.078124         3.203718        -0.544304
 H         3.469342         2.090832        -0.343671
 H         2.106443        -0.411954         0.507373
