19
Iteration:  2350
 O         4.400002         2.920953        -2.498829
 C         3.073735         2.391882        -2.415862
 C         2.084793         2.479710        -3.546054
 C         2.695984         1.058566        -3.043859
 C         1.752257         0.222805        -2.172534
 C         1.308803         1.224279        -1.009213
 C         2.359273         2.353174        -1.011438
 C         1.357098         0.410206         0.265476
 O         0.487314         0.308321         1.134635
 H         4.282223         3.802433        -2.906831
 H         1.187302         2.884526        -3.129768
 H         2.442515         2.942764        -4.515243
 H         3.425295         0.655638        -3.745918
 H         0.893158        -0.072641        -2.879657
 H         2.152201        -0.659009        -1.824121
 H         0.335240         1.622541        -1.292150
 H         1.637874         3.243867        -0.806115
 H         2.998030         2.347683        -0.057706
 H         2.390366        -0.122383         0.527131
