19
Iteration:  4054
 O         4.313038         2.854664        -2.592391
 C         3.010480         2.411151        -2.416567
 C         2.004544         2.446633        -3.508494
 C         2.635958         1.115840        -2.962384
 C         1.859651         0.219735        -1.976642
 C         1.499163         1.272323        -0.970567
 C         2.515363         2.421534        -0.994108
 C         1.352192         0.545429         0.327862
 O         0.316538         0.185447         0.828390
 H         4.358478         3.814719        -2.320707
 H         0.941633         2.524409        -3.280168
 H         2.039901         2.732917        -4.525088
 H         3.342927         0.488031        -3.612756
 H         1.194048        -0.433001        -2.543408
 H         2.580397        -0.470178        -1.601113
 H         0.466326         1.737584        -1.148885
 H         2.167164         3.429248        -0.688772
 H         3.497392         2.066660        -0.491282
 H         2.322816         0.277934         0.773371
