19
Iteration:  1706charge 0 multiplicity 1
 O         4.367091         2.946827        -2.666715
 C         3.025114         2.432922        -2.348811
 C         2.035817         2.625955        -3.591912
 C         2.589303         1.273412        -3.044495
 C         1.630393         0.385689        -2.178957
 C         1.447650         1.233104        -0.894784
 C         2.603183         2.235973        -0.901029
 C         1.354394         0.406974         0.417951
 O         0.381719         0.005093         0.956503
 H         4.641886         2.076879        -3.085150
 H         1.103523         3.058037        -3.467648
 H         2.607361         3.112436        -4.410189
 H         3.403417         0.603557        -3.502375
 H         0.624642         0.140738        -2.467947
 H         2.312293        -0.455840        -1.935959
 H         0.575891         1.930771        -1.103687
 H         2.317369         3.178593        -0.411089
 H         3.425843         1.864647        -0.207312
 H         2.288125         0.135314         0.788935
