19
Iteration:   747
 O         4.355442         3.068022        -2.649199
 C         3.148109         2.397927        -2.366168
 C         2.042482         2.583515        -3.249886
 C         2.548388         1.142817        -3.180456
 C         1.720331         0.186467        -2.261152
 C         1.474767         1.109790        -1.037742
 C         2.594148         2.186483        -0.924638
 C         1.292633         0.264115         0.313474
 O         0.365761         0.394370         1.046322
 H         4.173779         4.002872        -2.325989
 H         0.905181         2.906095        -2.956396
 H         2.270587         3.095922        -4.199228
 H         3.113578         0.619555        -3.942673
 H         0.815784        -0.300321        -2.513694
 H         2.523480        -0.533981        -2.068767
 H         0.581701         1.684070        -1.152638
 H         2.108410         3.103610        -0.622363
 H         3.512176         2.002669        -0.333698
 H         2.125147        -0.423938         0.569814
