19
Iteration:  1699
 O         4.339336         2.913876        -2.682404
 C         2.994706         2.444339        -2.355562
 C         2.144247         2.691732        -3.556256
 C         2.558723         1.199788        -3.051675
 C         1.645649         0.428762        -2.162720
 C         1.433810         1.211784        -0.879602
 C         2.612955         2.298108        -0.905534
 C         1.357408         0.425227         0.375987
 O         0.363290        -0.024513         0.980616
 H         4.840063         2.105214        -2.977453
 H         1.000772         2.937812        -3.301259
 H         2.526280         3.170497        -4.472531
 H         3.239563         0.700106        -3.687941
 H         0.789474        -0.124266        -2.670383
 H         2.168945        -0.525926        -1.891313
 H         0.478046         1.663137        -1.031715
 H         2.274785         3.267089        -0.546706
 H         3.562102         1.949164        -0.374906
 H         2.418845         0.235656         0.938520
