19
Iteration:  1156
 O         4.369137         2.962515        -2.646257
 C         3.100107         2.372009        -2.397002
 C         1.960945         2.634205        -3.370612
 C         2.549501         1.226103        -3.088748
 C         1.830475         0.296577        -2.148151
 C         1.364923         1.170722        -0.966454
 C         2.626050         2.140011        -0.984774
 C         1.322788         0.400564         0.293799
 O         0.365854         0.211296         0.973918
 H         4.372517         3.638062        -1.971800
 H         0.953469         3.008657        -3.053695
 H         2.350553         2.936502        -4.418392
 H         3.163505         0.902824        -3.869531
 H         1.031186        -0.384593        -2.512046
 H         2.521386        -0.419086        -1.683130
 H         0.365955         1.777418        -1.029968
 H         2.265123         3.202372        -0.808534
 H         3.356305         1.777552        -0.240153
 H         2.318263        -0.100355         0.612456
