19
Iteration:  2554
 O         4.262809         2.907452        -2.621878
 C         2.978653         2.399469        -2.330832
 C         2.004342         2.416594        -3.545908
 C         2.758476         1.151004        -3.135061
 C         1.873196         0.293547        -2.223154
 C         1.475524         1.130118        -1.023047
 C         2.559232         2.237621        -0.893289
 C         1.286316         0.394807         0.366130
 O         0.325410         0.436256         1.096965
 H         4.356733         3.849604        -2.348088
 H         0.901676         2.585703        -3.524178
 H         2.437352         3.025914        -4.390552
 H         3.641903         0.778682        -3.585374
 H         0.968140         0.088284        -2.675515
 H         2.322046        -0.647176        -1.891099
 H         0.476800         1.594120        -1.067076
 H         2.152725         3.216429        -0.584034
 H         3.483815         2.097599        -0.378792
 H         2.130628        -0.360483         0.598056
