19
Iteration:  4988
 O         4.331965         2.924468        -2.546566
 C         2.988035         2.393215        -2.379581
 C         2.063423         2.404707        -3.553973
 C         2.648979         1.088572        -3.085569
 C         1.919983         0.161807        -2.087433
 C         1.399682         1.187754        -1.019058
 C         2.435087         2.321334        -0.990574
 C         1.328821         0.625907         0.360356
 O         0.361946         0.298491         1.017552
 H         4.326816         3.893543        -2.735950
 H         0.986243         2.652812        -3.317511
 H         2.372851         2.861570        -4.485533
 H         3.394919         0.758962        -3.782132
 H         1.129345        -0.441323        -2.510103
 H         2.735905        -0.678212        -1.889872
 H         0.531065         1.621506        -1.498261
 H         1.979343         3.142853        -0.499402
 H         3.232368         2.084448        -0.295649
 H         2.313281         0.341012         0.883371
