19
Iteration:  4174charge 0 multiplicity 1
 O         4.385731         2.909224        -2.571976
 C         2.986526         2.427358        -2.404935
 C         2.175515         2.399534        -3.667239
 C         2.602522         1.127776        -3.033316
 C         1.793405         0.334728        -2.134978
 C         1.374977         1.161479        -0.980305
 C         2.389922         2.391016        -1.031984
 C         1.364416         0.399656         0.324515
 O         0.401281         0.249055         1.108914
 H         4.490896         3.838700        -2.321971
 H         1.175550         2.776707        -3.544134
 H         2.492379         2.837613        -4.547643
 H         3.538503         0.675751        -3.458773
 H         0.906997        -0.261126        -2.407839
 H         2.471821        -0.553166        -1.647959
 H         0.337510         1.621304        -1.107382
 H         1.774464         3.259548        -0.695277
 H         3.167973         2.207073        -0.186612
 H         2.320833         0.167331         0.794141
