19
Iteration:  4237charge 0 multiplicity 1
 O         4.345060         2.931962        -2.392467
 C         2.997003         2.389496        -2.291505
 C         1.953211         2.300100        -3.561446
 C         2.626267         1.103670        -3.126285
 C         1.868840         0.194181        -2.198524
 C         1.344705         1.243136        -1.069253
 C         2.444163         2.324903        -0.845219
 C         1.467442         0.479672         0.249935
 O         0.450118         0.445208         0.962406
 H         4.143117         3.637832        -3.065687
 H         0.903129         2.718038        -3.289744
 H         2.455465         2.645571        -4.420594
 H         3.436760         0.675020        -3.867961
 H         0.974476        -0.379315        -2.613138
 H         2.473141        -0.700963        -2.028410
 H         0.221828         1.516364        -1.251908
 H         2.070372         3.350714        -0.531022
 H         3.184386         1.948759        -0.175674
 H         2.513667         0.142542         0.572689
