19
Iteration:  1258
 O         4.290380         2.958486        -2.413254
 C         3.103773         2.349803        -2.368209
 C         2.047776         2.550013        -3.432850
 C         2.564335         1.141916        -3.219976
 C         1.737828         0.325173        -2.191014
 C         1.357329         1.238745        -0.994063
 C         2.543857         2.262941        -0.962968
 C         1.375725         0.370853         0.217768
 O         0.478681         0.224143         1.080179
 H         4.544175         3.326327        -3.303367
 H         1.063982         2.879571        -3.165852
 H         2.404029         3.141442        -4.313190
 H         3.240135         0.773620        -4.077415
 H         0.745717        -0.104447        -2.627052
 H         2.218422        -0.530272        -1.770344
 H         0.421994         1.871199        -1.093488
 H         2.224897         3.260575        -0.591128
 H         3.326866         1.849619        -0.331137
 H         2.255199        -0.259357         0.361073
