19
Iteration:  4421charge 0 multiplicity 1
 O         4.311424         2.919061        -2.529236
 C         2.996450         2.425816        -2.390751
 C         2.001825         2.452801        -3.530850
 C         2.667477         1.084959        -3.035432
 C         1.890710         0.246709        -2.083959
 C         1.442387         1.188856        -1.028182
 C         2.509980         2.332832        -1.008155
 C         1.311584         0.445884         0.264117
 O         0.390205         0.357955         1.037491
 H         4.202049         3.880359        -2.402182
 H         0.913804         2.488222        -3.498344
 H         2.649469         2.754589        -4.424479
 H         3.366160         0.518404        -3.556152
 H         1.041663        -0.123783        -2.700794
 H         2.292139        -0.689318        -1.761768
 H         0.457688         1.576879        -1.091618
 H         2.071419         3.343935        -0.765481
 H         3.366914         2.065621        -0.347150
 H         2.084539        -0.370988         0.509097
