19
Iteration:  3153
 O         4.203468         2.969252        -2.331291
 C         2.927367         2.391141        -2.371000
 C         2.180099         2.553520        -3.640199
 C         2.683442         1.148945        -3.179909
 C         1.846471         0.088896        -2.401567
 C         1.418060         0.944742        -1.086559
 C         2.303217         2.145958        -0.936331
 C         1.358886         0.346666         0.331356
 O         0.545095         0.729838         1.240790
 H         4.318867         3.893623        -2.727816
 H         1.124311         2.777366        -3.527230
 H         2.835063         3.314878        -4.143402
 H         3.415189         0.563470        -3.725107
 H         1.053776        -0.452162        -2.993262
 H         2.571187        -0.631790        -2.076800
 H         0.399174         1.387955        -1.244360
 H         1.842868         3.008838        -0.567525
 H         3.268290         1.955186        -0.435278
 H         2.097935        -0.424145         0.645243
