19
Iteration:  2917
 O         4.302221         3.041620        -2.422634
 C         3.090200         2.348866        -2.391656
 C         1.953879         2.404564        -3.486851
 C         2.578825         1.027791        -3.145534
 C         1.872874         0.270919        -2.092903
 C         1.468026         1.239162        -1.013529
 C         2.641389         2.272859        -0.989138
 C         1.344343         0.527781         0.367658
 O         0.307185         0.269141         0.904242
 H         4.233869         3.358777        -3.359971
 H         0.996331         2.722645        -3.057794
 H         2.255956         3.040276        -4.300094
 H         3.025372         0.502243        -3.936811
 H         1.048696        -0.153140        -2.643956
 H         2.387728        -0.622810        -1.655663
 H         0.514802         1.749460        -1.198379
 H         2.208008         3.208637        -0.640001
 H         3.400181         1.982104        -0.315789
 H         2.300143         0.143841         0.762572
