19
Iteration:  2900charge 0 multiplicity 1
 O         4.255231         3.004595        -2.481134
 C         3.054094         2.305875        -2.426246
 C         2.007497         2.414613        -3.368015
 C         2.669413         1.065194        -3.085637
 C         1.729555         0.202826        -2.108463
 C         1.428978         1.339302        -0.954885
 C         2.582245         2.262440        -0.921022
 C         1.351626         0.628272         0.249058
 O         0.386579         0.208328         0.840165
 H         4.497091         3.488256        -3.298599
 H         0.973333         2.356466        -3.095891
 H         2.327967         2.701800        -4.413308
 H         3.512214         0.671710        -3.765417
 H         0.719363        -0.222570        -2.451007
 H         2.500043        -0.447024        -1.724551
 H         0.446723         1.857747        -1.174336
 H         2.556599         3.325613        -0.461017
 H         3.418892         1.721839        -0.329442
 H         2.407456         0.522864         0.683955
