19
Iteration:  2029charge 0 multiplicity 1
 O         4.355732         3.065285        -2.364294
 C         3.059586         2.364573        -2.473128
 C         2.171484         2.548184        -3.643441
 C         2.544594         1.112742        -3.144829
 C         1.605466         0.297626        -2.132070
 C         1.349007         1.225415        -0.908147
 C         2.428777         2.294513        -0.926309
 C         1.444310         0.356060         0.292931
 O         0.487218         0.252877         1.029376
 H         4.876129         2.523865        -2.978367
 H         1.101597         2.687613        -3.643824
 H         2.613672         2.691769        -4.556997
 H         3.126858         0.653401        -3.990840
 H         0.642096        -0.172007        -2.534825
 H         2.232316        -0.609852        -1.835677
 H         0.369743         1.549184        -0.919337
 H         2.130475         3.310124        -0.669639
 H         3.187773         2.102635        -0.263986
 H         2.509988        -0.199216         0.316405
