19
Iteration:   291
 O         4.187506         3.202121        -2.588362
 C         3.020265         2.447884        -2.301045
 C         2.104653         2.455902        -3.568200
 C         2.696791         1.135156        -3.113413
 C         1.737451         0.208346        -2.301033
 C         1.430303         1.033278        -0.972849
 C         2.594728         2.198868        -0.811560
 C         1.344163         0.318682         0.331684
 O         0.401760         0.444998         1.081670
 H         4.860802         2.577507        -2.836418
 H         0.999293         2.528487        -3.480867
 H         2.772045         2.949971        -4.299612
 H         3.271719         0.580295        -3.851065
 H         0.729826         0.145276        -2.814553
 H         2.150233        -0.790607        -2.184303
 H         0.442101         1.516867        -1.165157
 H         2.234369         3.199571        -0.396476
 H         3.407266         1.866097        -0.145292
 H         2.075533        -0.479304         0.457016
