19
Iteration:  2310
 O         4.248131         2.809733        -2.498186
 C         2.905187         2.422575        -2.376886
 C         2.091159         2.514532        -3.713038
 C         2.612161         1.088234        -3.178751
 C         1.871702         0.273360        -2.174121
 C         1.492807         1.222849        -0.974943
 C         2.444767         2.364072        -0.902952
 C         1.381139         0.480349         0.332972
 O         0.389529         0.270745         1.087926
 H         4.442550         3.430644        -1.761373
 H         1.090557         2.914850        -3.765296
 H         2.791637         2.911213        -4.470630
 H         3.419617         0.588932        -3.705859
 H         1.013927        -0.343480        -2.406749
 H         2.683579        -0.508896        -1.717813
 H         0.521999         1.789041        -1.020870
 H         2.040938         3.277722        -0.568939
 H         3.377313         2.163085        -0.476772
 H         2.335233         0.098939         0.641423
