19
Iteration:  4094
 O         4.335565         2.908250        -2.627057
 C         3.049693         2.395437        -2.412574
 C         2.160202         2.523641        -3.651014
 C         2.650870         1.117552        -3.070445
 C         1.826937         0.281157        -2.082173
 C         1.394895         1.193478        -0.929183
 C         2.522979         2.463133        -1.003074
 C         1.282178         0.490081         0.491063
 O         0.282149         0.086708         1.025722
 H         4.189366         3.723453        -3.100277
 H         1.137573         2.715806        -3.453811
 H         2.749844         2.769990        -4.588803
 H         3.340995         0.660515        -3.713915
 H         0.915125        -0.317557        -2.335138
 H         2.647572        -0.496901        -1.644248
 H         0.415864         1.637248        -1.222307
 H         1.928319         3.377652        -0.754116
 H         3.348447         2.227548        -0.326114
 H         2.302321         0.207967         0.982748
