19
Iteration:   738
 O         4.398874         3.061933        -2.588609
 C         3.146396         2.389556        -2.364985
 C         1.957706         2.633333        -3.303454
 C         2.432293         1.101000        -3.168987
 C         1.770648         0.146521        -2.206017
 C         1.519461         1.063036        -1.011801
 C         2.633146         2.251757        -0.910267
 C         1.315616         0.234955         0.226202
 O         0.358553         0.439483         1.012910
 H         4.216397         4.043141        -2.524236
 H         1.104119         3.070804        -2.907763
 H         2.208431         3.026885        -4.238648
 H         3.051325         0.833305        -3.990423
 H         0.844794        -0.354273        -2.561372
 H         2.394285        -0.713205        -1.838090
 H         0.599262         1.498431        -1.162260
 H         2.015094         3.087749        -0.638351
 H         3.515060         2.146318        -0.183217
 H         2.149333        -0.494848         0.457477
