19
Iteration:  2435charge 0 multiplicity 1
 O         4.300884         3.017599        -2.372224
 C         3.029950         2.360026        -2.439910
 C         2.189832         2.566670        -3.620216
 C         2.652459         1.095472        -3.253752
 C         1.778408         0.294360        -2.185713
 C         1.368860         1.061787        -0.935385
 C         2.405720         2.277035        -1.093521
 C         1.270300         0.356919         0.391528
 O         0.458723         0.396213         1.267898
 H         4.542650         2.908464        -3.305671
 H         1.124195         2.658087        -3.815957
 H         2.698674         3.099625        -4.546064
 H         3.177372         0.502955        -3.994359
 H         1.008130        -0.177044        -2.843858
 H         2.544328        -0.562077        -1.898230
 H         0.424018         1.558657        -1.217344
 H         1.940537         3.270905        -0.801673
 H         3.195791         2.192936        -0.358281
 H         2.357981        -0.206849         0.450840
