19
Iteration:  4353
 O         4.361744         3.008925        -2.516632
 C         3.064524         2.308572        -2.356406
 C         1.914322         2.481860        -3.394163
 C         2.649727         1.059989        -3.116217
 C         1.954509         0.163663        -2.174240
 C         1.384883         1.113226        -1.051646
 C         2.434924         2.228613        -0.934405
 C         1.382177         0.479346         0.291782
 O         0.362883         0.546969         0.970001
 H         4.209853         3.995452        -2.494144
 H         0.859069         2.377151        -2.948456
 H         2.139986         2.936210        -4.316220
 H         3.347915         0.623732        -3.986800
 H         1.175450        -0.487554        -2.615409
 H         2.605188        -0.668253        -1.829733
 H         0.481925         1.404140        -1.502981
 H         2.083954         3.185206        -0.577126
 H         3.278118         1.854370        -0.271652
 H         2.320532        -0.120961         0.446387
