19
Iteration:   810
 O         4.371217         2.957107        -2.489755
 C         2.996033         2.326034        -2.421229
 C         2.038247         2.648783        -3.509572
 C         2.528048         1.164043        -3.126469
 C         1.735145         0.279527        -2.133971
 C         1.477923         1.186056        -0.920767
 C         2.552705         2.243039        -0.919730
 C         1.396821         0.290956         0.280015
 O         0.417229         0.298611         0.978256
 H         4.301528         3.917334        -2.630274
 H         0.917978         3.030584        -3.348271
 H         2.424585         2.876763        -4.514713
 H         2.968390         0.694912        -4.002154
 H         0.816976        -0.136464        -2.548603
 H         2.324747        -0.626503        -1.892500
 H         0.454879         1.740724        -1.084484
 H         2.266614         3.245019        -0.507690
 H         3.310641         1.674920        -0.387712
 H         2.419326        -0.165589         0.458362
