19
Iteration:  3605
 O         4.401779         2.943558        -2.591556
 C         3.019332         2.385202        -2.356748
 C         1.976780         2.406643        -3.401466
 C         2.668874         1.060153        -3.095546
 C         1.891962         0.208768        -2.103380
 C         1.347821         1.220810        -1.023378
 C         2.435855         2.362838        -0.960898
 C         1.365541         0.460648         0.265960
 O         0.364533         0.344777         0.930027
 H         4.475624         3.912384        -2.323752
 H         1.010810         2.660728        -2.825393
 H         2.208911         2.821637        -4.398239
 H         3.260850         0.640050        -3.949114
 H         0.997647        -0.333704        -2.486463
 H         2.576436        -0.471483        -1.634109
 H         0.372596         1.497189        -0.982066
 H         2.165860         3.397220        -0.766344
 H         3.309137         1.907354        -0.300820
 H         2.402635         0.100307         0.680946
