19
Iteration:  4887
 O         4.263513         2.924896        -2.424601
 C         2.984334         2.382651        -2.281849
 C         2.134440         2.367102        -3.694016
 C         2.697535         1.111788        -3.069667
 C         1.804741         0.195341        -2.229691
 C         1.314641         1.123010        -1.068482
 C         2.373306         2.362755        -0.966868
 C         1.378159         0.465655         0.281289
 O         0.507684         0.453951         1.132901
 H         4.238769         3.870412        -2.547892
 H         1.053669         2.587113        -3.608231
 H         2.685077         2.835734        -4.558455
 H         3.570668         0.648278        -3.676052
 H         1.144520        -0.351357        -2.857266
 H         2.425039        -0.701415        -1.867458
 H         0.318526         1.473641        -1.072546
 H         1.942204         3.319464        -0.764745
 H         3.129183         2.070966        -0.236938
 H         2.421796         0.095095         0.550049
