19
Iteration:  1832
 O         4.373499         2.972808        -2.591253
 C         3.110200         2.367988        -2.403519
 C         1.920421         2.704583        -3.356576
 C         2.517966         1.169135        -3.150983
 C         1.827047         0.211000        -2.198056
 C         1.442524         1.141904        -0.983640
 C         2.590152         2.185716        -0.954128
 C         1.354171         0.311729         0.260773
 O         0.371440         0.375096         1.011833
 H         4.709292         3.405023        -1.787630
 H         0.915418         2.937283        -3.070617
 H         2.317548         3.163951        -4.306614
 H         2.981242         0.717859        -4.018684
 H         0.889560        -0.283949        -2.579153
 H         2.482785        -0.592222        -1.807935
 H         0.488272         1.561770        -1.168353
 H         2.164705         3.104545        -0.501517
 H         3.256647         1.635190        -0.216310
 H         2.243255        -0.308357         0.486894
