19
Iteration:  3811
 O         4.361131         2.914111        -2.466903
 C         2.965339         2.400790        -2.318568
 C         2.078463         2.413198        -3.506668
 C         2.669606         1.085644        -3.050968
 C         1.803869         0.241471        -2.198368
 C         1.286599         1.113017        -1.037001
 C         2.354261         2.301885        -1.004532
 C         1.428484         0.426961         0.238970
 O         0.502144         0.478583         1.030838
 H         4.261963         3.826806        -2.688870
 H         0.990569         2.640693        -3.481934
 H         2.519587         2.691505        -4.498991
 H         3.700379         0.899336        -3.492299
 H         1.125144        -0.309819        -2.854969
 H         2.483359        -0.458555        -1.646022
 H         0.142679         1.536483        -1.023097
 H         1.946091         3.259346        -0.667402
 H         3.074844         1.905427        -0.354195
 H         2.421281        -0.061163         0.546781
