19
Iteration:  1864
 O         4.304275         3.047904        -2.527829
 C         3.059446         2.330131        -2.338313
 C         1.937241         2.546052        -3.350050
 C         2.597309         1.170726        -3.152165
 C         1.726934         0.254236        -2.244087
 C         1.452240         1.230767        -1.068644
 C         2.583586         2.188617        -0.894037
 C         1.348521         0.340434         0.207425
 O         0.451904         0.393237         1.027645
 H         5.058017         2.452947        -2.240143
 H         0.858311         2.415328        -3.200243
 H         2.276389         3.233247        -4.217368
 H         3.264010         0.678600        -3.853821
 H         0.813780        -0.171839        -2.805522
 H         2.302648        -0.685187        -1.953516
 H         0.512023         1.698892        -1.113682
 H         2.252926         3.179476        -0.496020
 H         3.356265         1.785935        -0.027529
 H         2.257570        -0.355790         0.320608
