19
Iteration:  4186
 O         4.435257         2.929224        -2.562346
 C         3.068773         2.441322        -2.428599
 C         2.153456         2.475358        -3.676052
 C         2.636862         1.111103        -3.182663
 C         1.796740         0.261586        -2.120526
 C         1.366610         1.186243        -0.940215
 C         2.333292         2.369309        -0.983882
 C         1.281082         0.406808         0.422367
 O         0.385503         0.223722         1.184969
 H         4.249105         3.920495        -2.553194
 H         1.116511         2.628038        -3.571747
 H         2.731132         2.782543        -4.535132
 H         3.319010         0.495418        -3.759649
 H         0.972021        -0.260733        -2.615477
 H         2.692119        -0.457532        -1.904231
 H         0.357423         1.585122        -1.202277
 H         1.741045         3.287371        -0.844121
 H         3.246760         2.489537        -0.265450
 H         2.317504         0.062804         0.545203
