19
Iteration:  2288charge 0 multiplicity 1
 O         4.330740         2.864716        -2.587628
 C         3.029232         2.461900        -2.371630
 C         2.019069         2.462535        -3.516654
 C         2.628579         1.141404        -3.079140
 C         1.883611         0.233036        -2.126246
 C         1.322891         1.205859        -1.009115
 C         2.472516         2.282533        -1.000957
 C         1.415212         0.520599         0.356377
 O         0.380542         0.289903         0.979301
 H         4.495392         3.473765        -1.853339
 H         0.994725         2.676636        -3.335625
 H         2.426907         2.927406        -4.451104
 H         3.345869         0.652362        -3.719297
 H         1.061871        -0.275948        -2.620253
 H         2.565466        -0.623534        -1.679430
 H         0.228501         1.510755        -1.072466
 H         2.051824         3.193779        -0.659784
 H         3.239958         1.948984        -0.346460
 H         2.469614         0.353370         0.764771
