19
Iteration:    36charge 0 multiplicity 1
 O         4.268088         2.749529        -2.340362
 C         2.992772         2.472009        -2.439106
 C         2.009281         2.476268        -3.506442
 C         2.567315         1.154280        -3.139959
 C         2.036278         0.285586        -2.107171
 C         1.389320         1.173901        -1.108354
 C         2.317011         2.383990        -0.990386
 C         1.365200         0.439871         0.230631
 O         0.518364         0.353435         1.098995
 H         4.586261         3.075465        -3.168579
 H         1.048037         2.852926        -3.137102
 H         2.128666         2.722860        -4.601351
 H         3.269426         0.671160        -3.908214
 H         1.243560        -0.375487        -2.513293
 H         2.892440        -0.302961        -1.663760
 H         0.499855         1.464365        -1.501108
 H         1.604474         3.166385        -0.695952
 H         3.186611         2.275888        -0.286411
 H         2.346913         0.176999         0.412672
