19
Iteration:  4929charge 0 multiplicity 1
 O         4.306216         2.978534        -2.502010
 C         3.032504         2.387211        -2.481382
 C         2.156569         2.396328        -3.643109
 C         2.711289         1.046200        -2.995382
 C         1.814748         0.231635        -2.171464
 C         1.283253         1.180394        -0.979772
 C         2.438311         2.445411        -1.042716
 C         1.332063         0.347687         0.355324
 O         0.418871         0.356357         1.174397
 H         4.116018         3.961503        -2.437857
 H         1.092308         2.562675        -3.654742
 H         2.714120         2.725611        -4.541082
 H         3.533238         0.649623        -3.646966
 H         0.855909        -0.144517        -2.707020
 H         2.543358        -0.588271        -1.731511
 H         0.317042         1.595649        -1.314833
 H         1.869350         3.365755        -0.752658
 H         3.347584         2.316295        -0.455220
 H         2.300350        -0.215195         0.328973
