19
Iteration:  2102
 O         4.363739         2.892718        -2.572797
 C         3.076162         2.388300        -2.470324
 C         2.049207         2.628802        -3.525628
 C         2.550695         1.158139        -3.086455
 C         1.809805         0.203304        -2.052113
 C         1.435905         1.246507        -0.956795
 C         2.556012         2.353125        -1.007352
 C         1.375991         0.412605         0.374081
 O         0.309386         0.172221         0.971916
 H         4.213833         3.760847        -2.156604
 H         0.943013         2.986665        -3.549672
 H         2.568911         2.686344        -4.476385
 H         3.059132         0.621927        -3.954025
 H         0.919453        -0.250040        -2.451775
 H         2.480643        -0.556614        -1.645842
 H         0.426981         1.764730        -0.913618
 H         2.008150         3.189639        -0.578731
 H         3.475002         2.185466        -0.261911
 H         2.405633        -0.115914         0.625965
