19
Iteration:  4106
 O         4.385548         2.967012        -2.599700
 C         3.081923         2.408276        -2.463256
 C         2.138222         2.481516        -3.555196
 C         2.648716         1.088251        -3.116739
 C         1.812390         0.203365        -1.982367
 C         1.398220         1.268420        -0.917689
 C         2.417254         2.345417        -1.045710
 C         1.284205         0.520122         0.402140
 O         0.323936         0.103668         1.025041
 H         4.342533         3.880697        -3.026348
 H         1.183095         2.970166        -3.496963
 H         2.537249         2.922731        -4.478033
 H         3.433761         0.550837        -3.696153
 H         0.924905        -0.093505        -2.590552
 H         2.336852        -0.843676        -1.645179
 H         0.339414         1.642989        -1.166464
 H         2.045957         3.387951        -0.747807
 H         3.257199         2.278238        -0.264698
 H         2.390682         0.384139         0.787977
