19
Iteration:  2708charge 0 multiplicity 1
 O         4.405349         2.850221        -2.625281
 C         3.051219         2.410808        -2.389076
 C         2.027929         2.394749        -3.516544
 C         2.660816         1.117551        -2.972627
 C         1.654685         0.348761        -1.991215
 C         1.420497         1.417052        -0.932774
 C         2.502211         2.383062        -0.957255
 C         1.375290         0.544242         0.362732
 O         0.378792         0.030720         0.821031
 H         4.352232         3.719585        -3.066987
 H         0.896722         2.410953        -3.430023
 H         2.430027         2.631284        -4.558672
 H         3.518105         0.686913        -3.622240
 H         0.774780        -0.029399        -2.403168
 H         2.258503        -0.465410        -1.626060
 H         0.493390         1.983832        -1.140839
 H         2.104088         3.357707        -0.531908
 H         3.449613         2.055584        -0.347731
 H         2.381102         0.156280         0.686779
