19
Iteration:  1876
 O         4.297657         3.066037        -2.540688
 C         3.007445         2.345129        -2.290531
 C         2.009534         2.550155        -3.494799
 C         2.656439         1.175400        -3.203311
 C         1.748945         0.309341        -2.263370
 C         1.366823         1.137879        -0.978800
 C         2.551135         2.155991        -0.843918
 C         1.339050         0.333526         0.272193
 O         0.458237         0.386216         1.061680
 H         4.869223         2.293709        -2.803803
 H         0.966351         2.776072        -3.347556
 H         2.484898         3.238462        -4.232630
 H         3.401750         0.771590        -3.956863
 H         0.747162         0.056531        -2.763816
 H         2.274605        -0.607174        -1.902198
 H         0.482724         1.696321        -1.144231
 H         2.242967         3.142006        -0.371580
 H         3.536371         1.665083        -0.320525
 H         2.259111        -0.339358         0.474935
