19
Iteration:  2349charge 0 multiplicity 1
 O         4.407526         2.920746        -2.498218
 C         3.073325         2.387904        -2.418380
 C         2.082597         2.484451        -3.561654
 C         2.695603         1.065641        -3.039967
 C         1.754002         0.222216        -2.172003
 C         1.318597         1.228348        -1.004980
 C         2.355193         2.348483        -1.017997
 C         1.355574         0.406577         0.268523
 O         0.483978         0.306879         1.136429
 H         4.237173         3.805320        -2.871241
 H         1.179831         2.920038        -3.121714
 H         2.423943         2.945224        -4.537589
 H         3.427427         0.619737        -3.734852
 H         0.891973        -0.071120        -2.863967
 H         2.162239        -0.646865        -1.807184
 H         0.323939         1.606797        -1.260720
 H         1.623839         3.229418        -0.776975
 H         3.001845         2.341748        -0.064577
 H         2.370390        -0.114415         0.524864
