19
Iteration:   481charge 0 multiplicity 1
 O         4.431457         2.943756        -2.653442
 C         3.151939         2.405204        -2.431492
 C         2.116182         2.558448        -3.485458
 C         2.518825         1.113489        -3.063797
 C         1.624867         0.332194        -2.134294
 C         1.416350         1.292250        -0.944476
 C         2.506479         2.484445        -0.960053
 C         1.336767         0.486384         0.533787
 O         0.392302        -0.128984         0.942507
 H         4.508885         3.406165        -3.528494
 H         1.028324         2.991454        -3.447367
 H         2.571750         2.758307        -4.510104
 H         3.124286         0.613092        -3.819434
 H         0.706804        -0.069146        -2.593262
 H         2.152864        -0.618738        -1.670511
 H         0.396814         1.766663        -0.950342
 H         2.097056         3.510936        -0.736086
 H         3.347838         2.058679        -0.273717
 H         2.348152         0.470699         1.068051
