19
Iteration:  3008
 O         4.250402         3.116364        -2.305729
 C         3.072006         2.303460        -2.373360
 C         1.962061         2.473140        -3.415425
 C         2.659467         1.079374        -3.124659
 C         1.863810         0.113773        -2.176457
 C         1.423755         1.105839        -1.146910
 C         2.524838         2.148919        -1.010356
 C         1.345902         0.435668         0.261967
 O         0.444749         0.586805         1.016762
 H         4.245502         3.714840        -3.029277
 H         0.896757         2.629969        -2.996655
 H         2.066765         2.560779        -4.549902
 H         3.250445         0.630987        -4.009469
 H         1.176896        -0.271813        -2.937685
 H         2.357333        -0.744543        -1.767433
 H         0.402981         1.616543        -1.365717
 H         2.135837         3.175908        -0.628511
 H         3.401768         1.763760        -0.433723
 H         2.239946        -0.228226         0.510117
