19
Iteration:  2389
 O         4.244354         2.930659        -2.385670
 C         2.991572         2.373225        -2.372112
 C         2.104203         2.408603        -3.547820
 C         2.715614         1.101415        -3.078062
 C         1.724360         0.259281        -2.184679
 C         1.286714         1.193570        -1.053852
 C         2.391820         2.249394        -0.907958
 C         1.460925         0.487053         0.200171
 O         0.546432         0.407812         1.040513
 H         4.801354         3.223843        -3.134245
 H         0.997644         2.605502        -3.387133
 H         2.490568         2.891825        -4.442592
 H         3.513453         0.600193        -3.676900
 H         0.786818         0.049769        -2.636550
 H         2.149127        -0.771131        -1.701173
 H         0.311784         1.727144        -1.111670
 H         2.006374         3.229428        -0.742482
 H         3.161987         2.148431        -0.212583
 H         2.541797         0.018366         0.241824
