19
Iteration:  4637
 O         4.383472         2.945681        -2.664761
 C         3.003102         2.434407        -2.340509
 C         2.007086         2.343111        -3.456638
 C         2.638416         1.072020        -3.054800
 C         1.880185         0.220806        -2.101679
 C         1.499981         1.248552        -1.015155
 C         2.510040         2.332267        -0.881860
 C         1.303653         0.530949         0.311131
 O         0.293637         0.258156         0.963414
 H         4.297423         3.838381        -3.053390
 H         0.899418         2.562432        -3.338290
 H         2.308373         2.804968        -4.402772
 H         3.244904         0.677502        -3.747109
 H         1.012011        -0.326295        -2.467724
 H         2.454907        -0.522603        -1.636482
 H         0.523743         1.642407        -1.330552
 H         2.262712         3.302783        -0.613734
 H         3.388590         2.096166        -0.228069
 H         2.180228         0.479075         0.844869
