19
Iteration:  4822
 O         4.234936         2.871558        -2.433625
 C         3.005703         2.410297        -2.482436
 C         2.126640         2.502576        -3.645923
 C         2.731455         1.177050        -3.126890
 C         1.951938         0.171496        -2.131002
 C         1.279786         1.062540        -1.013928
 C         2.322395         2.282810        -1.005903
 C         1.315071         0.382090         0.310026
 O         0.493794         0.546680         1.169135
 H         4.337980         3.865696        -2.427643
 H         1.015983         2.629386        -3.490384
 H         2.741279         3.089533        -4.412800
 H         3.520929         0.693631        -3.793259
 H         1.205884        -0.476337        -2.572125
 H         2.529071        -0.695615        -1.725648
 H         0.332890         1.296009        -1.464149
 H         1.888796         3.212710        -0.674694
 H         3.172592         2.044963        -0.280362
 H         2.312020        -0.205611         0.565277
