19
Iteration:  3707
 O         4.251767         3.009593        -2.424065
 C         3.023878         2.284817        -2.381451
 C         1.967110         2.438669        -3.442357
 C         2.766691         1.021546        -3.125177
 C         1.893758         0.297041        -2.171380
 C         1.329776         1.151289        -1.055182
 C         2.503322         2.228461        -0.972382
 C         1.328081         0.364539         0.240978
 O         0.463468         0.544944         1.030528
 H         4.289790         3.547217        -3.205145
 H         0.932461         2.488478        -3.155264
 H         2.205802         2.990832        -4.310192
 H         3.552863         0.618358        -3.712680
 H         1.063190        -0.119117        -2.742540
 H         2.473242        -0.567517        -1.925770
 H         0.430142         1.667110        -1.207601
 H         1.967611         3.126988        -0.611192
 H         3.153074         2.142837        -0.047196
 H         2.254617        -0.191373         0.436797
