19
Iteration:   639
 O         4.289902         3.054290        -2.370795
 C         3.076302         2.344445        -2.364633
 C         1.938366         2.472042        -3.411100
 C         2.514929         1.092882        -3.196217
 C         1.712780         0.323825        -2.212862
 C         1.534608         1.199067        -0.978330
 C         2.605291         2.250842        -0.960223
 C         1.414805         0.298127         0.269030
 O         0.413475         0.337174         0.968154
 H         4.625320         3.283372        -3.278952
 H         1.033832         2.831430        -3.092990
 H         2.292362         2.734473        -4.374893
 H         3.115638         0.685292        -4.037028
 H         0.697609         0.171554        -2.640427
 H         2.203687        -0.701128        -2.002331
 H         0.622294         1.749730        -1.042501
 H         2.290652         3.251947        -0.673075
 H         3.558715         2.362406        -0.283623
 H         2.256026        -0.398807         0.462580
