19
Iteration:  2717charge 0 multiplicity 1
 O         4.321779         2.838390        -2.627519
 C         3.042448         2.431444        -2.409330
 C         2.097190         2.411855        -3.578619
 C         2.643008         1.083734        -3.029635
 C         1.729040         0.394541        -2.075181
 C         1.412068         1.319598        -0.889443
 C         2.519093         2.441855        -0.925945
 C         1.381671         0.547337         0.452736
 O         0.346263         0.005179         0.841448
 H         4.606607         3.571601        -3.159511
 H         1.035770         2.787105        -3.399177
 H         2.429954         2.682495        -4.595783
 H         3.445337         0.440312        -3.410744
 H         0.797443         0.219417        -2.583799
 H         2.141985        -0.491218        -1.625040
 H         0.462798         1.850093        -0.912754
 H         2.205694         3.391233        -0.547616
 H         3.437201         2.147660        -0.341224
 H         2.367278         0.333368         0.945195
