19
Iteration:  3156
 O         4.195255         2.988764        -2.316840
 C         2.945194         2.357836        -2.364655
 C         2.186687         2.547181        -3.637551
 C         2.654850         1.133100        -3.180710
 C         1.855646         0.077626        -2.420511
 C         1.399727         0.957109        -1.070378
 C         2.320309         2.139708        -0.941034
 C         1.348114         0.361506         0.328376
 O         0.550230         0.732845         1.227053
 H         4.195766         3.871899        -2.736610
 H         1.177295         2.810157        -3.504542
 H         2.748126         3.287160        -4.176308
 H         3.472780         0.554954        -3.789716
 H         1.064570        -0.360903        -3.053743
 H         2.626798        -0.653864        -2.174841
 H         0.470886         1.409870        -1.117943
 H         1.813661         2.977826        -0.462046
 H         3.368115         2.020087        -0.405277
 H         2.121108        -0.335623         0.641014
