19
Iteration:  1049
 O         4.336976         2.944085        -2.596478
 C         3.014340         2.437044        -2.354936
 C         1.971940         2.624267        -3.368632
 C         2.621163         1.151497        -3.045237
 C         1.823225         0.270343        -2.221241
 C         1.383097         1.309302        -0.903465
 C         2.633345         2.176564        -0.962157
 C         1.365255         0.467943         0.324745
 O         0.328413         0.118402         0.928135
 H         4.358713         3.069220        -3.538474
 H         0.964274         2.818108        -2.980895
 H         2.104262         3.048453        -4.434217
 H         3.421472         0.870205        -3.662749
 H         0.817448        -0.139376        -2.734907
 H         2.417804        -0.583601        -1.911102
 H         0.435596         1.932730        -1.034387
 H         2.732717         3.069909        -0.267311
 H         3.483185         1.556233        -0.657443
 H         2.381539         0.119826         0.622023
