19
Iteration:  4835
 O         4.331580         2.906815        -2.421632
 C         2.971232         2.380272        -2.320005
 C         2.088062         2.445946        -3.548768
 C         2.681090         1.063066        -3.133236
 C         1.939329         0.184519        -2.208629
 C         1.382261         1.095020        -1.119947
 C         2.267141         2.318982        -1.039175
 C         1.330276         0.462872         0.273011
 O         0.496821         0.521201         1.183796
 H         4.260795         3.872337        -2.385685
 H         0.988618         2.694857        -3.421331
 H         2.445648         2.783421        -4.600554
 H         3.462108         0.629055        -3.884083
 H         1.127220        -0.346386        -2.736612
 H         2.661623        -0.484599        -1.810431
 H         0.350018         1.447157        -1.223160
 H         1.671925         3.187934        -0.815745
 H         3.088162         2.181480        -0.250907
 H         2.296186        -0.211143         0.437897
