19
Iteration:   850charge 0 multiplicity 1
 O         4.426324         2.757770        -2.632874
 C         3.086855         2.417311        -2.374895
 C         1.991602         2.698404        -3.394104
 C         2.674333         1.217671        -3.056093
 C         1.777626         0.275721        -2.247535
 C         1.372663         1.220567        -1.023711
 C         2.422534         2.368751        -0.931731
 C         1.350278         0.401891         0.331954
 O         0.433353         0.124294         1.070063
 H         4.261187         3.673816        -2.964452
 H         0.958100         2.799056        -3.097720
 H         2.195039         3.127061        -4.364883
 H         3.219946         0.744335        -3.952656
 H         0.783137        -0.011980        -2.779783
 H         2.212208        -0.694702        -1.901447
 H         0.307810         1.571465        -1.082631
 H         2.000619         3.355276        -0.520444
 H         3.343443         2.086997        -0.293982
 H         2.377726         0.027763         0.651831
