19
Iteration:  4655charge 0 multiplicity 1
 O         4.291619         2.886519        -2.686696
 C         3.093055         2.365574        -2.370546
 C         1.970113         2.416489        -3.357421
 C         2.710073         1.127877        -3.057059
 C         1.915292         0.184272        -2.043323
 C         1.363126         1.195455        -1.003260
 C         2.490351         2.333015        -0.915347
 C         1.386714         0.579220         0.326867
 O         0.315633         0.351990         0.850536
 H         4.157918         3.844327        -2.764568
 H         1.001518         2.475361        -3.017837
 H         2.200698         2.862218        -4.341245
 H         3.497648         0.614299        -3.667331
 H         1.163052        -0.369464        -2.596899
 H         2.638047        -0.632816        -1.748216
 H         0.380109         1.653609        -1.129239
 H         1.936754         3.298151        -0.503915
 H         3.306291         2.016161        -0.214409
 H         2.371260         0.006759         0.727309
