19
Iteration:  2846
 O         4.421958         2.858270        -2.623171
 C         3.062831         2.355263        -2.461292
 C         2.114146         2.521992        -3.616442
 C         2.547343         1.086504        -3.043245
 C         1.780982         0.403151        -2.009973
 C         1.438336         1.382170        -0.847908
 C         2.504689         2.566244        -1.028328
 C         1.379351         0.397607         0.601673
 O         0.255417        -0.070890         0.850221
 H         4.331183         3.690472        -3.166982
 H         1.073117         2.827193        -3.508165
 H         2.733358         2.494770        -4.569421
 H         3.224511         0.403881        -3.675387
 H         0.745755        -0.135617        -2.340415
 H         2.385163        -0.546094        -1.733720
 H         0.472733         1.846867        -1.147202
 H         2.060481         3.580513        -1.038472
 H         3.405007         2.607402        -0.367215
 H         2.312975         0.070708         1.113613
