19
Iteration:  3494charge 0 multiplicity 1
 O         4.370050         2.881408        -2.608221
 C         3.066928         2.433070        -2.368538
 C         2.064822         2.345685        -3.509347
 C         2.632243         1.052933        -2.963219
 C         1.798453         0.300767        -2.040178
 C         1.291405         1.366134        -0.941396
 C         2.461507         2.469744        -1.002825
 C         1.413083         0.491700         0.318824
 O         0.404098         0.113731         0.837568
 H         4.390542         3.820597        -2.523715
 H         1.141117         2.730500        -3.110762
 H         2.298234         2.724420        -4.539463
 H         3.187491         0.513478        -3.660861
 H         1.012263        -0.066524        -2.735300
 H         2.215478        -0.557260        -1.562535
 H         0.332185         1.719390        -0.896881
 H         2.259506         3.495335        -0.656987
 H         3.090062         1.982965        -0.197790
 H         2.463804         0.192934         0.619934
