19
Iteration:  1311charge 0 multiplicity 1
 O         4.305972         2.981166        -2.463615
 C         3.024020         2.326241        -2.372956
 C         2.031622         2.697346        -3.449528
 C         2.557202         1.158369        -3.202847
 C         1.748263         0.314658        -2.326083
 C         1.410573         1.103776        -0.978433
 C         2.516606         2.238324        -0.942844
 C         1.401766         0.340459         0.326665
 O         0.442903         0.288633         1.107025
 H         4.934044         2.548640        -3.104658
 H         0.975997         2.698224        -3.482122
 H         2.411218         3.284078        -4.312098
 H         3.443614         0.715268        -3.748278
 H         0.789208        -0.020341        -2.703600
 H         2.354785        -0.501894        -2.049946
 H         0.508174         1.781486        -1.079100
 H         2.159396         3.215164        -0.544195
 H         3.308624         2.016578        -0.250421
 H         2.364247        -0.194410         0.672797
