19
Iteration:  4444charge 0 multiplicity 1
 O         4.351387         2.975102        -2.609283
 C         3.069247         2.339041        -2.319890
 C         2.073385         2.339624        -3.448871
 C         2.670563         1.001772        -3.095812
 C         1.798317         0.275330        -2.164204
 C         1.306085         1.270368        -1.021112
 C         2.410470         2.363021        -0.886551
 C         1.361046         0.470452         0.215115
 O         0.441177         0.318070         0.990376
 H         4.203469         3.922091        -2.487514
 H         1.178661         2.577311        -3.000387
 H         2.395286         2.859904        -4.387980
 H         3.313062         0.515548        -3.634605
 H         1.114123        -0.362742        -2.723863
 H         2.388662        -0.432720        -1.655831
 H         0.416177         1.800475        -0.926075
 H         2.091461         3.448260        -0.852407
 H         3.186807         2.131769        -0.132528
 H         2.279304         0.136633         0.685880
