19
Iteration:  3691
 O         4.299042         3.060037        -2.441229
 C         3.066591         2.389246        -2.354104
 C         2.065713         2.410279        -3.530467
 C         2.663064         1.138508        -3.135289
 C         1.834200         0.133438        -2.249260
 C         1.468028         1.104257        -1.032246
 C         2.474688         2.259874        -0.998511
 C         1.282530         0.417993         0.328467
 O         0.378339         0.483689         1.140570
 H         4.258711         3.725029        -3.163126
 H         0.991899         2.607218        -3.292262
 H         2.399102         2.863577        -4.515749
 H         3.299493         0.676158        -3.966949
 H         0.940986        -0.415729        -2.663822
 H         2.535355        -0.677622        -1.831518
 H         0.388419         1.497991        -1.199037
 H         2.118282         3.247785        -0.609816
 H         3.431345         1.950138        -0.475160
 H         2.057232        -0.400288         0.530480
