19
Iteration:  2475charge 0 multiplicity 1
 O         4.388847         2.886774        -2.384755
 C         2.983007         2.382007        -2.307106
 C         1.916033         2.385350        -3.468106
 C         2.652040         1.130119        -3.037669
 C         1.846792         0.246073        -2.225928
 C         1.388728         1.186109        -1.148067
 C         2.371011         2.301346        -0.941552
 C         1.380500         0.400909         0.212642
 O         0.531432         0.504494         1.018561
 H         4.549471         3.287144        -3.273874
 H         0.838895         2.362916        -3.274995
 H         2.345323         2.974868        -4.287079
 H         3.286918         0.651283        -3.849726
 H         0.969688        -0.190344        -2.597846
 H         2.466160        -0.579638        -1.814131
 H         0.342697         1.586457        -1.222400
 H         1.865789         3.192583        -0.624196
 H         3.305313         2.110771        -0.351975
 H         2.368812        -0.026606         0.486691
