19
Iteration:  4291
 O         4.286721         3.012716        -2.645509
 C         3.059512         2.430802        -2.410566
 C         2.173589         2.474050        -3.583171
 C         2.657685         1.179278        -3.098808
 C         1.914401         0.242181        -2.220044
 C         1.377526         1.028400        -1.032036
 C         2.541910         2.248878        -0.904805
 C         1.242440         0.301165         0.399688
 O         0.301452         0.490831         1.194908
 H         3.975823         3.937102        -2.352988
 H         0.936810         2.695020        -3.501737
 H         2.528765         2.626872        -4.599022
 H         3.281031         0.484182        -3.836967
 H         1.193471        -0.511665        -2.686382
 H         2.853761        -0.311234        -1.993412
 H         0.278628         1.433937        -1.237208
 H         1.959689         3.169921        -0.526285
 H         3.428948         2.005859        -0.278276
 H         2.062371        -0.427586         0.755593
