19
Iteration:  3421
 O         4.373290         2.860197        -2.526719
 C         3.132509         2.326281        -2.436099
 C         1.990728         2.450778        -3.455332
 C         2.592352         1.069780        -3.019651
 C         1.811244         0.264121        -2.077087
 C         1.372489         1.251098        -1.027602
 C         2.495932         2.454476        -0.966460
 C         1.315270         0.691215         0.353344
 O         0.417269         0.039328         0.890920
 H         4.373969         3.828546        -2.669443
 H         1.013855         2.893318        -3.086658
 H         2.323099         2.741054        -4.516107
 H         3.056717         0.656130        -3.845317
 H         0.930356        -0.242640        -2.497945
 H         2.502199        -0.596659        -1.840690
 H         0.363620         1.731742        -1.344916
 H         2.079529         3.401457        -0.630605
 H         3.295289         2.259540        -0.267931
 H         2.405062         0.832466         0.750913
