19
Iteration:    68
 O         4.365178         3.005889        -2.310265
 C         3.028302         2.391538        -2.436956
 C         2.142095         2.568409        -3.625426
 C         2.599199         1.156441        -3.247383
 C         1.785878         0.197093        -2.246220
 C         1.313869         1.029725        -0.955924
 C         2.207773         2.296768        -1.102138
 C         1.505572         0.391199         0.444812
 O         0.499683         0.393549         1.141126
 H         4.995499         2.699414        -3.006842
 H         1.144517         2.958946        -3.431150
 H         2.475854         2.943364        -4.615946
 H         3.306714         0.598952        -3.956750
 H         0.986175        -0.361689        -2.721960
 H         2.516008        -0.553495        -1.887370
 H         0.326602         1.331260        -1.014254
 H         1.484506         3.093544        -0.982935
 H         2.886644         2.378391        -0.240929
 H         2.565050         0.159896         0.940838
