19
Iteration:  4612charge 0 multiplicity 1
 O         4.329035         2.989142        -2.572256
 C         3.009771         2.371552        -2.474016
 C         2.106582         2.420950        -3.623208
 C         2.637437         1.052006        -3.095396
 C         1.856363         0.320612        -2.074433
 C         1.432361         1.302636        -0.831793
 C         2.550862         2.279730        -1.095242
 C         1.315573         0.510814         0.517586
 O         0.248946         0.163577         0.969392
 H         4.162812         3.865728        -2.919192
 H         1.169488         2.807701        -3.429623
 H         2.470250         2.821963        -4.594206
 H         3.490802         0.564870        -3.743284
 H         1.064720        -0.330336        -2.394377
 H         2.495334        -0.427510        -1.547335
 H         0.375390         1.593628        -0.999605
 H         2.460751         3.448121        -0.793355
 H         3.489331         1.973189        -0.514825
 H         2.174668         0.140997         1.031721
