19
Iteration:  3185
 O         4.255294         3.089534        -2.266241
 C         3.052017         2.347071        -2.377550
 C         2.000563         2.381793        -3.481112
 C         2.731736         1.061653        -3.130762
 C         1.803823         0.173370        -2.312212
 C         1.356165         1.042121        -1.146376
 C         2.405661         2.091980        -0.997357
 C         1.353320         0.402573         0.244126
 O         0.571289         0.712638         1.095394
 H         4.181973         3.984393        -2.571586
 H         0.945844         2.443395        -3.234907
 H         2.278956         3.125670        -4.270111
 H         3.236934         0.522005        -3.915774
 H         1.004655        -0.158637        -3.004738
 H         2.369021        -0.681322        -1.950597
 H         0.343406         1.511125        -1.164145
 H         2.046457         2.968824        -0.490509
 H         3.218594         1.776605        -0.399556
 H         2.232271        -0.313430         0.493132
