19
Iteration:  3823charge 0 multiplicity 1
 O         4.292842         2.874579        -2.523185
 C         3.059664         2.356424        -2.294957
 C         2.035254         2.370958        -3.490295
 C         2.783560         1.139526        -3.036406
 C         1.798966         0.228980        -2.167384
 C         1.280321         1.195736        -1.107722
 C         2.376939         2.350734        -0.916359
 C         1.374586         0.444617         0.179030
 O         0.525003         0.438417         1.025076
 H         4.258820         3.868739        -2.417780
 H         0.962042         2.231734        -3.279721
 H         2.340252         3.035789        -4.279825
 H         3.432568         0.503140        -3.652826
 H         0.981321        -0.342297        -2.673634
 H         2.448840        -0.565347        -1.713186
 H         0.171196         1.625857        -1.204185
 H         1.797504         3.210707        -0.677514
 H         3.076943         2.282307        -0.148328
 H         2.455793         0.105098         0.357963
