19
Iteration:  3654charge 0 multiplicity 1
 O         4.269696         2.969098        -2.549269
 C         3.008684         2.361734        -2.354302
 C         2.110746         2.496288        -3.628235
 C         2.682891         1.189316        -3.179695
 C         1.861585         0.231065        -2.172569
 C         1.434832         1.087941        -0.927231
 C         2.508542         2.215495        -0.986501
 C         1.346129         0.397288         0.417926
 O         0.307789         0.453406         1.083666
 H         3.936021         3.853741        -2.570630
 H         1.047838         2.550366        -3.545438
 H         2.607167         2.877545        -4.492379
 H         3.375039         0.794177        -3.876483
 H         1.103296        -0.451099        -2.509495
 H         2.808821        -0.317170        -1.922465
 H         0.356839         1.649850        -1.125990
 H         2.078354         3.067862        -0.409956
 H         3.296730         1.803383        -0.442560
 H         2.221531        -0.326045         0.648833
