19
Iteration:  3505
 O         4.357158         2.926801        -2.610198
 C         3.144514         2.269252        -2.385925
 C         2.035427         2.390491        -3.380255
 C         2.695113         1.053454        -3.001030
 C         1.708202         0.290481        -2.018980
 C         1.336625         1.386956        -0.959696
 C         2.406663         2.431197        -0.946908
 C         1.418273         0.519648         0.196294
 O         0.428390         0.148439         0.824621
 H         4.176606         3.885711        -2.544039
 H         0.988634         2.581691        -3.151324
 H         2.336304         2.575390        -4.443364
 H         3.336989         0.617986        -3.684211
 H         0.791859        -0.194753        -2.425452
 H         2.243176        -0.508250        -1.522960
 H         0.372843         1.728150        -1.012668
 H         1.978035         3.397944        -0.623613
 H         3.361637         2.249223        -0.333844
 H         2.428490         0.363937         0.592710
