19
Iteration:   788charge 0 multiplicity 1
 O         4.267376         2.883221        -2.514021
 C         2.905086         2.524566        -2.288342
 C         2.039142         2.487772        -3.548035
 C         2.554017         1.231485        -3.108649
 C         1.738000         0.333629        -2.275152
 C         1.520352         1.191613        -0.987492
 C         2.687412         2.104649        -0.907117
 C         1.342678         0.423099         0.302449
 O         0.412696         0.298675         1.033115
 H         4.471154         3.836624        -2.408167
 H         0.826997         2.377692        -3.505520
 H         2.303007         3.130348        -4.415489
 H         3.387547         0.881341        -3.714297
 H         0.928714        -0.211089        -2.750857
 H         2.417120        -0.441687        -1.891043
 H         0.518196         1.806231        -1.129818
 H         2.493177         2.876338        -0.125599
 H         3.522860         1.454960        -0.707013
 H         2.321137        -0.174447         0.426465
