19
Iteration:   749
 O         4.342966         3.068440        -2.660413
 C         3.129881         2.386773        -2.359566
 C         2.047289         2.576558        -3.259549
 C         2.579544         1.166171        -3.184178
 C         1.727544         0.208023        -2.268043
 C         1.458714         1.115747        -1.028954
 C         2.584278         2.171788        -0.941415
 C         1.286490         0.285886         0.330719
 O         0.368956         0.380373         1.053496
 H         4.188355         3.944969        -2.311911
 H         1.035643         2.772406        -2.963352
 H         2.299002         3.068997        -4.134263
 H         3.082260         0.612019        -3.942481
 H         0.776550        -0.264288        -2.584031
 H         2.543903        -0.533361        -2.097771
 H         0.618363         1.685299        -1.140133
 H         2.200443         3.116456        -0.564263
 H         3.496138         1.918927        -0.277856
 H         2.121317        -0.423978         0.587206
