19
Iteration:  2461charge 0 multiplicity 1
 O         4.333253         2.899562        -2.433928
 C         3.010884         2.439977        -2.350239
 C         2.072218         2.479772        -3.559233
 C         2.644019         1.141406        -3.107242
 C         1.811963         0.183691        -2.214577
 C         1.323853         1.064202        -1.027539
 C         2.413183         2.351890        -0.886834
 C         1.382610         0.424122         0.246388
 O         0.498065         0.475801         1.083250
 H         4.482992         3.011189        -3.387669
 H         1.010136         2.733362        -3.382575
 H         2.246283         2.702611        -4.555456
 H         3.488540         0.755662        -3.716747
 H         1.006561        -0.253865        -2.886108
 H         2.407089        -0.580875        -1.890803
 H         0.333741         1.454621        -1.263918
 H         1.839833         3.233880        -0.517095
 H         3.127231         2.146724         0.018581
 H         2.371485        -0.214712         0.329224
