19
Iteration:  4241
 O         4.322007         2.937259        -2.389404
 C         2.994601         2.351670        -2.300030
 C         1.941166         2.306289        -3.526590
 C         2.646802         1.101560        -3.116531
 C         1.862899         0.196326        -2.225348
 C         1.351961         1.254431        -1.049651
 C         2.435327         2.336107        -0.856713
 C         1.438621         0.467330         0.244421
 O         0.465857         0.461501         0.950822
 H         4.129651         3.647898        -3.008433
 H         1.055204         2.699630        -3.308615
 H         2.375205         2.663271        -4.483032
 H         3.324154         0.663897        -3.709082
 H         1.078225        -0.337937        -2.724428
 H         2.513175        -0.704751        -1.926298
 H         0.345386         1.445509        -1.320992
 H         2.188316         3.317533        -0.520211
 H         3.329536         1.937294        -0.300487
 H         2.514091         0.135038         0.624133
