19
Iteration:  2529
 O         4.309629         3.006217        -2.589175
 C         2.997796         2.431648        -2.384470
 C         2.196891         2.544457        -3.615450
 C         2.594836         1.137331        -3.155470
 C         1.878871         0.166595        -2.245888
 C         1.346999         1.037272        -0.942113
 C         2.487554         2.154396        -0.938102
 C         1.329013         0.430617         0.445691
 O         0.338370         0.461337         1.133775
 H         4.174443         3.987930        -2.562047
 H         1.171713         2.847598        -3.579356
 H         2.627182         2.869587        -4.560941
 H         3.419558         0.733068        -3.806948
 H         0.974291        -0.237885        -2.640555
 H         2.524868        -0.601067        -1.982787
 H         0.298868         1.382642        -0.945179
 H         2.214494         3.067293        -0.421432
 H         3.544935         1.908150        -0.542672
 H         2.209192        -0.254511         0.695303
