19
Iteration:  2348
 O         4.414651         2.920396        -2.497602
 C         3.073150         2.383189        -2.420009
 C         2.081377         2.489383        -3.577715
 C         2.694899         1.074056        -3.036516
 C         1.754345         0.224011        -2.173337
 C         1.329080         1.230814        -1.001398
 C         2.350271         2.345461        -1.023432
 C         1.354026         0.402740         0.273345
 O         0.480789         0.305483         1.137520
 H         4.194050         3.809206        -2.833187
 H         1.167325         2.952165        -3.119943
 H         2.401674         2.940024        -4.551030
 H         3.425620         0.582897        -3.721542
 H         0.896643        -0.067439        -2.836292
 H         2.186685        -0.656501        -1.780084
 H         0.310424         1.589377        -1.223376
 H         1.625040         3.209330        -0.752844
 H         3.004096         2.333215        -0.087388
 H         2.341643        -0.100556         0.514813
