19
Iteration:  2151charge 0 multiplicity 1
 O         4.292190         3.001033        -2.737652
 C         3.050451         2.405394        -2.337147
 C         1.940005         2.533393        -3.405616
 C         2.640062         1.134788        -3.044874
 C         1.916068         0.163680        -2.097331
 C         1.459701         1.192592        -0.953467
 C         2.572109         2.282188        -0.901204
 C         1.309351         0.533575         0.301697
 O         0.285486         0.229322         0.869555
 H         4.970396         2.507216        -2.223363
 H         1.072824         2.931221        -2.961590
 H         2.243176         3.038808        -4.352163
 H         3.321664         0.653083        -3.727007
 H         0.841993        -0.156336        -2.372928
 H         2.642870        -0.619123        -1.763119
 H         0.490374         1.605907        -1.139318
 H         2.285733         3.234027        -0.385928
 H         3.375097         1.899105        -0.319303
 H         2.366921         0.283343         0.708059
