19
Iteration:   523
 O         4.346445         2.630185        -2.558503
 C         2.973029         2.475455        -2.324811
 C         2.012683         2.540494        -3.529883
 C         2.519629         1.186126        -3.052795
 C         1.804554         0.316907        -2.072213
 C         1.365836         1.403484        -0.944366
 C         2.434670         2.502938        -0.997138
 C         1.484449         0.507215         0.344705
 O         0.498680        -0.006847         0.829014
 H         4.636766         3.379960        -2.014633
 H         0.953925         2.791876        -3.264048
 H         2.450318         2.891279        -4.471203
 H         3.059697         0.643803        -3.855254
 H         0.944568        -0.321831        -2.361230
 H         2.527876        -0.261116        -1.578455
 H         0.296270         1.679859        -1.192002
 H         2.132222         3.475269        -0.551193
 H         3.300947         2.246503        -0.389440
 H         2.553328         0.300588         0.591723
