19
Iteration:  4993charge 0 multiplicity 1
 O         4.360380         2.939860        -2.551888
 C         2.972752         2.368620        -2.363599
 C         2.048803         2.387939        -3.567457
 C         2.617697         1.134901        -3.129306
 C         1.939048         0.194471        -2.062811
 C         1.421477         1.144905        -0.987261
 C         2.464306         2.308613        -1.008049
 C         1.294375         0.637259         0.367772
 O         0.346468         0.281293         1.034207
 H         4.289029         3.882561        -2.688682
 H         1.054171         2.714408        -3.409824
 H         2.409832         2.695818        -4.560728
 H         3.369595         0.581318        -3.744572
 H         1.228904        -0.404053        -2.726916
 H         2.792328        -0.377587        -1.907334
 H         0.430013         1.597454        -1.384802
 H         2.024615         3.287879        -0.575224
 H         3.278195         2.027860        -0.284125
 H         2.224592         0.338701         0.910245
