19
Iteration:  2234
 O         4.274804         2.981226        -2.594038
 C         3.043010         2.407420        -2.361742
 C         2.032536         2.525487        -3.560177
 C         2.617975         1.090763        -3.105463
 C         1.874259         0.282276        -2.041989
 C         1.532148         1.228110        -0.937868
 C         2.583754         2.280744        -0.880227
 C         1.365492         0.419445         0.376136
 O         0.237658         0.288786         0.893087
 H         4.033949         3.224098        -3.493826
 H         0.989344         2.538566        -3.458652
 H         2.332228         2.812464        -4.617698
 H         3.332210         0.610255        -3.762248
 H         1.034206        -0.262970        -2.237923
 H         2.559608        -0.500150        -1.722944
 H         0.515210         1.662647        -1.056385
 H         2.308384         3.192587        -0.393258
 H         3.493732         1.865691        -0.439911
 H         2.123762        -0.260024         0.867522
