19
Iteration:   219charge 0 multiplicity 1
 O         4.260244         2.890030        -2.187383
 C         3.030806         2.242239        -2.383066
 C         2.071797         2.621795        -3.533418
 C         2.591280         1.217456        -3.190050
 C         1.847235         0.206069        -2.187575
 C         1.194377         1.021730        -1.174468
 C         2.281292         2.267142        -1.038884
 C         1.438137         0.486768         0.174850
 O         0.707464         0.463571         1.165821
 H         4.656697         3.024078        -3.071201
 H         1.075063         2.819988        -3.237464
 H         2.566732         2.973857        -4.369130
 H         3.168249         0.655310        -3.970696
 H         1.265971        -0.395310        -2.852447
 H         2.553474        -0.445149        -1.626765
 H         0.197529         1.480765        -1.357267
 H         1.694022         3.132296        -0.820071
 H         3.064562         2.313670        -0.243324
 H         2.335174         0.035039         0.235313
