19
Iteration:  1760charge 0 multiplicity 1
 O         4.377372         3.073099        -2.459748
 C         3.120927         2.293946        -2.368326
 C         1.966119         2.576352        -3.306198
 C         2.456874         1.112077        -3.189941
 C         1.710064         0.269911        -2.169108
 C         1.448705         1.243764        -0.949573
 C         2.671116         2.257168        -0.887373
 C         1.379070         0.406456         0.232304
 O         0.379890         0.234445         0.894139
 H         4.673974         2.814398        -3.377676
 H         0.985533         2.793987        -2.974375
 H         2.231215         2.894542        -4.308004
 H         2.659307         0.619474        -4.211304
 H         0.732426        -0.062524        -2.502689
 H         2.317071        -0.635491        -1.928658
 H         0.435878         1.773553        -1.117823
 H         2.430104         3.302134        -0.626820
 H         3.488188         1.855153        -0.284842
 H         2.413858        -0.179214         0.380485
