19
Iteration:  4818charge 0 multiplicity 1
 O         4.253806         2.868322        -2.440731
 C         2.989760         2.431366        -2.469640
 C         2.115389         2.517459        -3.688814
 C         2.749619         1.177402        -3.132049
 C         1.945943         0.181330        -2.136921
 C         1.260230         1.063247        -1.022853
 C         2.350861         2.269741        -0.985379
 C         1.341805         0.353346         0.328385
 O         0.475765         0.555086         1.174191
 H         4.126745         3.834540        -2.428719
 H         1.098247         2.689987        -3.542339
 H         2.727501         2.976097        -4.366838
 H         3.516681         0.743644        -3.641235
 H         1.193746        -0.601444        -2.477131
 H         2.606919        -0.701094        -1.775125
 H         0.243461         1.312080        -1.404233
 H         1.875316         3.241605        -0.640989
 H         3.206431         2.016309        -0.415253
 H         2.203343        -0.199369         0.582252
