19
Iteration:  1721
 O         4.357879         2.952880        -2.586187
 C         3.056401         2.477861        -2.341850
 C         2.015836         2.519289        -3.525900
 C         2.524453         1.203652        -3.127683
 C         1.691201         0.397279        -2.174681
 C         1.423312         1.311213        -0.878496
 C         2.650455         2.255323        -0.834835
 C         1.390474         0.407341         0.347376
 O         0.366080         0.065450         0.927265
 H         4.932061         2.490154        -3.197066
 H         0.828454         2.637129        -3.516302
 H         2.463400         2.932515        -4.438975
 H         3.118979         0.808675        -3.898919
 H         0.759595         0.133401        -2.766887
 H         1.972326        -0.641288        -1.945330
 H         0.448916         1.709727        -0.904848
 H         2.457403         3.135150        -0.212905
 H         3.547136         1.650446        -0.463394
 H         2.376771        -0.001912         0.656957
