19
Iteration:  3092charge 0 multiplicity 1
 O         4.258060         2.945246        -2.427315
 C         3.031802         2.310994        -2.359462
 C         2.050955         2.414851        -3.491761
 C         2.716207         1.064820        -3.058973
 C         1.938584         0.200205        -2.210757
 C         1.326750         1.201407        -1.034544
 C         2.282376         2.373820        -1.041553
 C         1.217351         0.330910         0.101119
 O         0.653858         0.526662         1.165643
 H         4.206686         3.784945        -1.872284
 H         1.054858         2.648061        -3.185987
 H         2.326413         2.932065        -4.401955
 H         3.496970         0.528910        -3.761501
 H         1.205706        -0.349382        -2.810018
 H         2.625930        -0.560487        -1.686877
 H         0.359107         1.543347        -1.440224
 H         1.965737         3.432319        -0.975042
 H         3.017552         2.298182        -0.189077
 H         1.904040        -0.561002         0.000948
