19
Iteration:   226charge 0 multiplicity 1
 O         4.278037         2.935077        -2.191659
 C         3.066001         2.316166        -2.363390
 C         2.055473         2.589629        -3.510388
 C         2.561595         1.127372        -3.187108
 C         1.872284         0.213320        -2.172616
 C         1.176632         1.082512        -1.177759
 C         2.322099         2.282361        -1.099648
 C         1.355355         0.438599         0.165029
 O         0.715635         0.452946         1.182331
 H         4.727210         2.869017        -3.081911
 H         1.113617         2.847014        -3.051333
 H         2.488689         3.147416        -4.383603
 H         3.238941         0.720783        -3.921223
 H         1.076321        -0.444831        -2.710308
 H         2.683577        -0.419824        -1.714686
 H         0.105992         1.357809        -1.454910
 H         1.726967         3.226704        -0.969390
 H         3.068673         1.994384        -0.313080
 H         2.477350        -0.092591         0.251292
