19
Iteration:   366
 O         4.351887         2.821286        -2.667655
 C         2.969743         2.441997        -2.371766
 C         1.859430         2.610550        -3.419805
 C         2.577110         1.239835        -3.110716
 C         2.029346         0.170210        -2.149177
 C         1.562606         1.129186        -0.850493
 C         2.539172         2.332151        -0.930422
 C         1.377583         0.383285         0.416717
 O         0.245599         0.277601         0.833635
 H         4.484813         3.798042        -2.886662
 H         0.838636         2.829913        -2.922750
 H         2.371455         3.087262        -4.290458
 H         3.249330         0.995820        -3.923496
 H         1.114742        -0.275079        -2.571883
 H         2.690460        -0.598143        -1.832292
 H         0.544861         1.448568        -1.049424
 H         2.059732         3.251692        -0.485507
 H         3.433025         2.001017        -0.450685
 H         2.184909         0.190907         1.070095
