19
Iteration:  2600charge 0 multiplicity 1
 O         4.326197         2.948883        -2.567005
 C         3.118634         2.355288        -2.404174
 C         2.053118         2.478851        -3.392438
 C         2.546893         1.130001        -3.105857
 C         1.890425         0.184259        -2.100842
 C         1.416673         1.236582        -0.956416
 C         2.508929         2.221068        -0.986830
 C         1.340589         0.504387         0.288637
 O         0.317743         0.332351         0.974769
 H         4.191403         3.900359        -2.793490
 H         0.978879         2.725090        -3.179948
 H         2.329994         2.908389        -4.328236
 H         3.051065         0.541778        -3.884094
 H         1.139822        -0.402407        -2.549199
 H         2.788730        -0.431542        -1.918215
 H         0.459296         1.659081        -1.285510
 H         2.155046         3.218342        -0.620295
 H         3.268069         1.922816        -0.332334
 H         2.345688         0.138439         0.597083
