19
Iteration:  3807charge 0 multiplicity 1
 O         4.361496         2.919466        -2.444913
 C         2.951934         2.416311        -2.351890
 C         2.095756         2.429568        -3.538007
 C         2.648897         1.074989        -3.054319
 C         1.830741         0.240638        -2.217306
 C         1.297773         1.109318        -1.031799
 C         2.323244         2.283015        -1.013023
 C         1.427595         0.433642         0.286345
 O         0.496779         0.479259         1.042733
 H         4.278964         3.866754        -2.767985
 H         1.064902         2.751116        -3.462682
 H         2.562007         2.646011        -4.509644
 H         3.592006         0.886901        -3.520522
 H         1.088823        -0.306393        -2.788782
 H         2.414948        -0.528678        -1.705362
 H         0.302128         1.435013        -1.114596
 H         2.034048         3.302424        -0.558818
 H         3.163246         1.875485        -0.281580
 H         2.371435        -0.148124         0.521892
