19
Iteration:  1095
 O         4.301087         3.007775        -2.490930
 C         3.065005         2.397563        -2.414658
 C         1.999108         2.604608        -3.435652
 C         2.463765         1.137325        -3.113894
 C         1.762058         0.214197        -2.132777
 C         1.613837         1.187866        -0.871640
 C         2.668514         2.301693        -0.985239
 C         1.371826         0.338311         0.377972
 O         0.293521         0.243553         0.842543
 H         4.447057         3.575316        -3.237225
 H         1.031248         2.958668        -3.024457
 H         2.206538         3.053378        -4.406485
 H         3.078664         0.856404        -4.051297
 H         0.699905        -0.136057        -2.418867
 H         2.412774        -0.737367        -1.977558
 H         0.596150         1.585170        -0.958984
 H         2.442171         3.264023        -0.488454
 H         3.558655         1.815701        -0.433698
 H         2.197440        -0.427724         0.616608
