19
Iteration:   611charge 0 multiplicity 1
 O         4.335800         2.926968        -2.550436
 C         2.985404         2.450190        -2.316200
 C         2.054078         2.529636        -3.579682
 C         2.632139         1.152522        -3.106026
 C         1.706557         0.352630        -2.192738
 C         1.380866         1.304033        -0.936692
 C         2.517987         2.263576        -0.898572
 C         1.392095         0.337248         0.295766
 O         0.452667         0.176034         1.040889
 H         4.457041         3.373798        -3.387523
 H         0.886049         2.679666        -3.434121
 H         2.516640         2.958197        -4.498135
 H         3.572282         0.808334        -3.452716
 H         0.720300         0.037955        -2.614458
 H         2.187903        -0.493221        -1.753640
 H         0.350253         1.805548        -1.112023
 H         2.560609         3.142576        -0.209359
 H         3.368650         1.788014        -0.527036
 H         2.250431        -0.420705         0.290522
