19
Iteration:  2439charge 0 multiplicity 1
 O         4.307008         2.999645        -2.408015
 C         2.983304         2.348809        -2.408362
 C         2.197723         2.567058        -3.594825
 C         2.662004         1.122313        -3.196484
 C         1.807641         0.266586        -2.204413
 C         1.388629         1.091205        -0.977612
 C         2.346618         2.275739        -1.113620
 C         1.293064         0.333064         0.401143
 O         0.462704         0.410849         1.244439
 H         4.566331         2.927301        -3.346131
 H         1.122133         2.733986        -3.696327
 H         2.722802         3.083400        -4.349292
 H         3.175036         0.468303        -3.896913
 H         0.983085        -0.210391        -2.837598
 H         2.437775        -0.468561        -1.903328
 H         0.463620         1.615141        -1.195375
 H         2.020018         3.298951        -0.799410
 H         3.291122         2.132711        -0.398037
 H         2.268513        -0.193189         0.522328
