19
Iteration:  2547charge 0 multiplicity 1
 O         4.249011         2.916175        -2.626358
 C         2.991099         2.392504        -2.386377
 C         2.028133         2.513487        -3.606034
 C         2.795075         1.166007        -3.109207
 C         1.824996         0.290878        -2.186836
 C         1.504005         1.091661        -1.023511
 C         2.514302         2.221006        -0.893661
 C         1.282713         0.327159         0.392622
 O         0.321732         0.458403         1.122649
 H         4.333525         3.878397        -2.402954
 H         0.902224         2.614997        -3.640945
 H         2.547933         3.027298        -4.357333
 H         3.619488         0.643205        -3.642115
 H         0.905679        -0.111400        -2.865081
 H         2.404543        -0.682253        -1.852432
 H         0.539937         1.629935        -1.128304
 H         2.198392         3.217437        -0.465809
 H         3.419228         1.897822        -0.327944
 H         2.223645        -0.133000         0.831463
