19
Iteration:  2396
 O         4.268356         2.958777        -2.313356
 C         2.986921         2.440311        -2.412117
 C         2.105844         2.434892        -3.552219
 C         2.686348         1.091648        -3.084209
 C         1.721308         0.249660        -2.171975
 C         1.310047         1.152243        -1.034055
 C         2.445682         2.278608        -1.036261
 C         1.397810         0.475236         0.231025
 O         0.556814         0.401560         1.067751
 H         4.706470         3.095755        -3.189531
 H         1.031633         2.470335        -3.572815
 H         2.567957         2.691340        -4.471326
 H         3.359894         0.532677        -3.725361
 H         0.715023         0.002029        -2.598014
 H         2.121532        -0.674297        -1.819972
 H         0.266067         1.494940        -1.045025
 H         2.012380         3.212022        -0.612291
 H         3.336503         2.054339        -0.364572
 H         2.350865        -0.099350         0.391442
