19
Iteration:    62
 O         4.400084         2.979598        -2.291586
 C         3.047042         2.361726        -2.445160
 C         2.046086         2.585995        -3.605968
 C         2.613766         1.152761        -3.267446
 C         1.821200         0.132288        -2.253262
 C         1.331370         1.081855        -0.961806
 C         2.215289         2.335461        -1.109784
 C         1.474377         0.392134         0.444399
 O         0.494365         0.380363         1.147759
 H         4.866652         2.717522        -3.076848
 H         1.030513         3.087001        -3.507712
 H         2.497226         2.991901        -4.506295
 H         3.433176         0.835583        -3.878144
 H         0.976793        -0.500129        -2.642082
 H         2.648586        -0.437754        -1.753674
 H         0.178048         1.299309        -0.993703
 H         1.497462         3.200720        -1.098788
 H         3.005719         2.391445        -0.321062
 H         2.483607         0.157970         0.814197
