19
Iteration:  1292
 O         4.263227         2.931503        -2.374558
 C         2.999824         2.480898        -2.373193
 C         2.013028         2.528592        -3.547918
 C         2.583634         1.267423        -3.150939
 C         1.704574         0.276168        -2.268239
 C         1.509621         1.092084        -0.970918
 C         2.541159         2.271251        -0.929337
 C         1.463770         0.314413         0.308922
 O         0.428005         0.325762         1.022131
 H         4.722714         2.564195        -3.213202
 H         1.121282         2.960090        -3.263178
 H         2.507243         2.917133        -4.486297
 H         3.185870         0.842686        -4.030146
 H         0.641141         0.295813        -2.771752
 H         1.980573        -0.735671        -2.017628
 H         0.479926         1.482692        -0.858447
 H         2.216252         3.147469        -0.355339
 H         3.444611         1.902230        -0.444270
 H         2.368498        -0.250410         0.600925
