19
Iteration:  2872
 O         4.364710         2.954353        -2.619471
 C         3.061015         2.389018        -2.429826
 C         2.096186         2.458180        -3.549373
 C         2.632829         1.071424        -3.042786
 C         1.719077         0.375298        -2.031968
 C         1.445391         1.340769        -0.907900
 C         2.528496         2.391263        -0.905052
 C         1.314020         0.523443         0.401527
 O         0.329892         0.013003         0.879241
 H         4.404752         3.390789        -3.511022
 H         0.990889         2.424628        -3.397984
 H         2.473592         2.544126        -4.557010
 H         3.453158         0.565608        -3.527646
 H         0.737156         0.011030        -2.359375
 H         2.275414        -0.566048        -1.777264
 H         0.525617         1.798148        -1.187929
 H         2.333976         3.342020        -0.502825
 H         3.334996         1.958873        -0.347022
 H         2.306674         0.462822         0.928670
