19
Iteration:  3606charge 0 multiplicity 1
 O         4.404360         2.947181        -2.590877
 C         3.024343         2.386451        -2.359903
 C         1.971594         2.407763        -3.391026
 C         2.660141         1.057820        -3.087177
 C         1.894904         0.205415        -2.109960
 C         1.347594         1.224208        -1.036041
 C         2.434415         2.364013        -0.953300
 C         1.364604         0.462846         0.269074
 O         0.369701         0.347876         0.926731
 H         4.498379         3.895620        -2.316462
 H         0.994188         2.622214        -2.837426
 H         2.182545         2.779806        -4.421207
 H         3.280431         0.608461        -3.947604
 H         1.009010        -0.327777        -2.516164
 H         2.569444        -0.474047        -1.634393
 H         0.360836         1.492581        -0.983015
 H         2.177934         3.386400        -0.741296
 H         3.298972         1.919308        -0.303161
 H         2.387868         0.081250         0.672052
