19
Iteration:  2134
 O         4.319238         2.878368        -2.658761
 C         3.014970         2.451324        -2.420526
 C         1.948172         2.518432        -3.494433
 C         2.598597         1.178138        -3.116657
 C         1.906601         0.314209        -2.099407
 C         1.490523         1.240135        -0.921279
 C         2.592116         2.309514        -0.955613
 C         1.355991         0.407119         0.437819
 O         0.248456         0.203613         0.913800
 H         4.723078         2.834474        -1.778432
 H         0.793595         2.563400        -3.490345
 H         2.264364         2.903974        -4.444312
 H         3.318787         0.898963        -3.923491
 H         1.178309        -0.216793        -2.665461
 H         2.771769        -0.231637        -1.659775
 H         0.454407         1.710926        -1.103407
 H         2.257230         3.227598        -0.464991
 H         3.553048         2.020862        -0.347478
 H         2.225830        -0.043932         0.961198
