19
Iteration:  2278charge 0 multiplicity 1
 O         4.433625         2.939555        -2.598767
 C         3.029178         2.399604        -2.417724
 C         1.948412         2.428586        -3.421516
 C         2.678378         1.081021        -3.065699
 C         1.825213         0.234147        -2.167579
 C         1.382659         1.173101        -1.016270
 C         2.398223         2.307692        -0.976187
 C         1.351902         0.544424         0.323201
 O         0.380172         0.273988         0.983801
 H         4.716838         3.733041        -2.129331
 H         1.036672         2.826339        -3.061841
 H         2.290981         2.840270        -4.406281
 H         3.253980         0.664975        -3.879187
 H         1.098837        -0.367787        -2.594252
 H         2.539468        -0.461636        -1.582388
 H         0.439092         1.774598        -1.129133
 H         2.091208         3.227090        -0.566347
 H         3.256293         2.031328        -0.409890
 H         2.402052         0.293834         0.824450
