19
Iteration:  1605
 O         4.426240         2.795600        -2.654226
 C         3.063560         2.434495        -2.386897
 C         2.078082         2.647954        -3.490996
 C         2.507582         1.206446        -3.119184
 C         1.675025         0.415745        -2.204950
 C         1.376314         1.304393        -0.857169
 C         2.565771         2.379987        -0.920031
 C         1.374949         0.422767         0.420816
 O         0.392088        -0.101649         0.971944
 H         4.441870         3.633608        -3.111462
 H         1.124605         3.114357        -3.297430
 H         2.557787         2.988836        -4.355940
 H         3.112717         0.591164        -3.741134
 H         0.730800         0.178626        -2.656188
 H         2.105034        -0.545273        -1.954625
 H         0.395470         1.878530        -0.837514
 H         2.341287         3.312841        -0.341533
 H         3.533551         1.947032        -0.515339
 H         2.384848         0.045423         0.760500
