19
Iteration:  1426charge 0 multiplicity 1
 O         4.325730         3.014227        -2.630687
 C         3.074324         2.342132        -2.332527
 C         1.952169         2.585839        -3.418687
 C         2.594534         1.272862        -3.223223
 C         1.766030         0.275717        -2.174387
 C         1.389633         1.220398        -1.053006
 C         2.664989         2.058625        -0.901993
 C         1.288027         0.390731         0.246187
 O         0.426187         0.259953         1.097507
 H         4.617504         3.374279        -1.766239
 H         0.850167         2.671287        -3.100751
 H         2.303873         3.410614        -4.164805
 H         3.100507         0.647895        -3.958074
 H         0.802086        -0.037953        -2.631951
 H         2.360127        -0.501995        -1.797410
 H         0.447955         1.705342        -1.116564
 H         2.446269         2.987918        -0.364483
 H         3.550907         1.694604        -0.437123
 H         2.249067        -0.087067         0.485601
