19
Iteration:  3966charge 0 multiplicity 1
 O         4.287953         2.953167        -2.607472
 C         2.989295         2.347694        -2.393357
 C         2.032957         2.406549        -3.538110
 C         2.630549         1.106343        -3.121998
 C         1.920308         0.312322        -2.067297
 C         1.468863         1.208415        -0.855330
 C         2.612969         2.388793        -0.952417
 C         1.346104         0.474721         0.449511
 O         0.208004         0.228036         0.876019
 H         4.318383         3.680723        -3.280443
 H         1.060345         2.733472        -3.435951
 H         2.532393         2.773751        -4.439834
 H         3.320236         0.595141        -3.799806
 H         1.146017        -0.327953        -2.492138
 H         2.630895        -0.365047        -1.620097
 H         0.520954         1.769710        -1.112227
 H         2.283500         3.316155        -0.514769
 H         3.444828         2.033430        -0.326812
 H         2.300548        -0.042734         0.805648
