19
Iteration:  1514charge 0 multiplicity 1
 O         4.375325         2.930643        -2.514351
 C         3.091717         2.321757        -2.372974
 C         1.972542         2.742142        -3.391283
 C         2.480716         1.235985        -3.226742
 C         1.752640         0.270726        -2.232254
 C         1.439622         1.204234        -0.973100
 C         2.608502         2.173070        -0.926325
 C         1.349388         0.412672         0.358150
 O         0.390829         0.159684         1.032473
 H         4.530432         3.099699        -3.466079
 H         0.935769         3.022338        -3.042032
 H         2.207826         3.111749        -4.488226
 H         3.182389         0.955949        -4.054655
 H         0.983043        -0.307080        -2.794477
 H         2.451447        -0.399951        -1.863566
 H         0.548412         1.786711        -1.138094
 H         2.311101         3.071413        -0.322674
 H         3.379460         1.779895        -0.289010
 H         2.384663         0.109146         0.683182
