19
Iteration:  4783
 O         4.291046         2.995603        -2.460270
 C         2.965661         2.394025        -2.360889
 C         2.052048         2.419226        -3.599206
 C         2.737649         1.072992        -3.129130
 C         1.917123         0.151567        -2.178910
 C         1.394716         1.074357        -1.069341
 C         2.467186         2.284173        -0.969079
 C         1.284677         0.374112         0.297304
 O         0.427618         0.562351         1.149526
 H         4.048316         3.945165        -2.436737
 H         1.022707         2.720220        -3.526104
 H         2.393601         2.846536        -4.554254
 H         3.426831         0.615876        -3.889550
 H         0.953689        -0.174247        -2.643900
 H         2.610014        -0.638988        -1.898027
 H         0.388949         1.498893        -1.236718
 H         1.955249         3.193619        -0.604422
 H         3.270952         2.112068        -0.255731
 H         2.121269        -0.279984         0.469488
