19
Iteration:  1248
 O         4.318037         2.960040        -2.466632
 C         3.071306         2.274932        -2.395860
 C         2.066033         2.612407        -3.357771
 C         2.564273         1.121168        -3.172476
 C         1.789121         0.323837        -2.223406
 C         1.315036         1.315814        -1.058027
 C         2.553991         2.303804        -0.916879
 C         1.294855         0.332771         0.255530
 O         0.495982         0.196484         1.112449
 H         4.307337         3.537248        -3.302254
 H         1.119706         2.965567        -3.104376
 H         2.452305         2.777231        -4.371512
 H         3.158267         0.635718        -4.027798
 H         0.834421        -0.049176        -2.769848
 H         2.373462        -0.552658        -2.042191
 H         0.328544         1.594034        -1.410280
 H         2.371014         3.320450        -0.547744
 H         3.333048         1.838599        -0.319757
 H         2.359396         0.015974         0.336750
