19
Iteration:  4415
 O         4.306022         2.914944        -2.513846
 C         2.946670         2.429383        -2.428050
 C         2.031360         2.448687        -3.568273
 C         2.681937         1.104802        -3.037396
 C         1.895259         0.261218        -2.128474
 C         1.442400         1.156901        -0.969998
 C         2.501972         2.307240        -1.017419
 C         1.314485         0.390889         0.301906
 O         0.361161         0.384961         1.053330
 H         4.368309         3.910019        -2.437152
 H         0.958549         2.634263        -3.506878
 H         2.461947         2.826354        -4.451416
 H         3.496147         0.554018        -3.638405
 H         1.086364        -0.134459        -2.739638
 H         2.481929        -0.635083        -1.729059
 H         0.463154         1.756330        -1.068580
 H         2.187264         3.308685        -0.690964
 H         3.402847         2.061727        -0.464744
 H         2.161556        -0.263020         0.603263
