19
Iteration:   771charge 0 multiplicity 1
 O         4.265595         2.930666        -2.618645
 C         3.040770         2.380088        -2.351063
 C         1.888130         2.556579        -3.505850
 C         2.728368         1.232050        -3.174511
 C         1.845819         0.344948        -2.281012
 C         1.369473         1.177854        -0.991316
 C         2.668189         2.069545        -0.796796
 C         1.293398         0.377074         0.315206
 O         0.393329         0.324188         1.081453
 H         4.224628         3.862437        -2.259222
 H         0.874852         2.766501        -3.357468
 H         2.284815         3.097304        -4.313541
 H         3.532292         0.841983        -3.790084
 H         0.886152         0.203712        -2.805983
 H         2.256236        -0.659666        -2.009824
 H         0.490183         1.694796        -1.130782
 H         2.523468         2.946919        -0.182964
 H         3.599829         1.540368        -0.417037
 H         2.287626        -0.025356         0.617329
