19
Iteration:  2428charge 0 multiplicity 1
 O         4.284305         3.033555        -2.332720
 C         3.098583         2.364886        -2.477036
 C         2.163401         2.538648        -3.711199
 C         2.626047         1.097469        -3.296069
 C         1.785103         0.277016        -2.205388
 C         1.317218         1.087472        -0.944947
 C         2.474138         2.290405        -1.014491
 C         1.309490         0.380552         0.366453
 O         0.448108         0.376111         1.295520
 H         4.738662         3.031622        -3.183385
 H         1.078205         2.715694        -3.694973
 H         2.651679         2.855954        -4.597126
 H         3.272428         0.593029        -4.013299
 H         0.849123        -0.224575        -2.640728
 H         2.398789        -0.493780        -1.934986
 H         0.295369         1.433491        -1.110593
 H         1.786995         3.145303        -0.850546
 H         3.275962         2.203558        -0.170862
 H         2.163305        -0.236943         0.536646
