19
Iteration:  3794
 O         4.276321         2.928980        -2.370613
 C         3.023239         2.428358        -2.424447
 C         2.142093         2.484890        -3.683916
 C         2.668847         1.144621        -3.133833
 C         1.846773         0.148037        -2.185426
 C         1.393382         1.097865        -1.050902
 C         2.343797         2.287236        -0.973353
 C         1.368130         0.427581         0.339137
 O         0.453380         0.467963         1.169260
 H         4.331080         3.733020        -2.865276
 H         1.109578         2.799905        -3.547625
 H         2.598904         2.875454        -4.548132
 H         3.121777         0.535543        -3.841094
 H         0.867909        -0.155923        -2.625678
 H         2.507861        -0.700537        -2.017125
 H         0.458252         1.396533        -1.285230
 H         1.802239         3.126938        -0.479587
 H         3.317812         1.996576        -0.409651
 H         2.291796        -0.169367         0.540190
