19
Iteration:   990charge 0 multiplicity 1
 O         4.447931         2.917481        -2.407973
 C         3.074530         2.380400        -2.476288
 C         1.977589         2.607119        -3.500424
 C         2.420802         1.179548        -3.105909
 C         1.720617         0.367100        -2.028386
 C         1.434432         1.230479        -0.959580
 C         2.643326         2.352543        -1.045330
 C         1.437205         0.390056         0.350544
 O         0.352834         0.048807         0.907942
 H         4.530967         3.642653        -3.025653
 H         1.018179         3.103965        -3.234324
 H         2.261731         2.747990        -4.495265
 H         2.662661         0.593917        -4.073181
 H         0.775844        -0.168253        -2.318244
 H         2.354223        -0.487018        -1.773073
 H         0.524508         1.788499        -1.030701
 H         2.252682         3.313814        -0.795461
 H         3.475113         2.060416        -0.410299
 H         2.349871        -0.144773         0.678796
