19
Iteration:   245
 O         4.350628         3.007058        -2.270426
 C         3.025091         2.400770        -2.389131
 C         2.007914         2.501523        -3.523472
 C         2.623482         1.149200        -3.196300
 C         1.822942         0.166733        -2.286725
 C         1.324493         1.155804        -1.128540
 C         2.295557         2.321496        -0.963712
 C         1.353401         0.356286         0.224883
 O         0.624190         0.443668         1.196605
 H         4.909062         2.669124        -3.002280
 H         0.862057         2.607937        -3.250812
 H         2.484024         2.632169        -4.559406
 H         3.230995         0.721522        -3.976446
 H         1.100477        -0.415810        -2.860772
 H         2.511623        -0.474562        -1.772025
 H         0.378532         1.626686        -1.257716
 H         1.805232         3.225295        -0.501746
 H         3.167720         2.042199        -0.385435
 H         2.039253        -0.446033         0.253565
