19
Iteration:  3913charge 0 multiplicity 1
 O         4.329991         2.943776        -2.541825
 C         3.029882         2.357835        -2.366481
 C         2.028598         2.431800        -3.483526
 C         2.703138         1.099972        -3.101374
 C         1.896884         0.239568        -2.132030
 C         1.407494         1.235242        -0.960397
 C         2.449629         2.295130        -0.952716
 C         1.341581         0.527027         0.332045
 O         0.341756         0.280967         0.972409
 H         4.340251         3.585759        -3.308786
 H         1.016069         2.478398        -3.215395
 H         2.202888         2.882815        -4.475993
 H         3.426882         0.715120        -3.869938
 H         0.923292        -0.175840        -2.549143
 H         2.428984        -0.624588        -1.667883
 H         0.449512         1.717529        -1.326116
 H         2.132193         3.243674        -0.621461
 H         3.188333         1.922029        -0.296199
 H         2.373340         0.424894         0.752623
