19
Iteration:   789charge 0 multiplicity 1
 O         4.265533         2.881724        -2.508641
 C         2.913046         2.529245        -2.289990
 C         2.045230         2.488658        -3.547171
 C         2.544054         1.224433        -3.108093
 C         1.736466         0.328046        -2.270284
 C         1.514585         1.191991        -0.985468
 C         2.687047         2.110446        -0.915635
 C         1.348229         0.422640         0.301535
 O         0.413997         0.298346         1.027705
 H         4.467669         3.857853        -2.412873
 H         0.809940         2.412154        -3.503907
 H         2.313201         3.125063        -4.404380
 H         3.373681         0.894052        -3.699796
 H         0.941065        -0.196605        -2.732794
 H         2.405656        -0.434036        -1.875131
 H         0.524490         1.768747        -1.112471
 H         2.495204         2.860720        -0.150627
 H         3.537600         1.490695        -0.723517
 H         2.306538        -0.197237         0.427591
