19
Iteration:  3335charge 0 multiplicity 1
 O         4.335980         2.978180        -2.629231
 C         3.135677         2.420632        -2.439561
 C         2.044761         2.399071        -3.517501
 C         2.672199         1.135960        -3.146120
 C         1.861207         0.347870        -2.130443
 C         1.422489         1.327710        -0.910148
 C         2.563006         2.306867        -1.020622
 C         1.295661         0.396578         0.497656
 O         0.242934         0.141178         1.016423
 H         4.154555         3.870683        -2.863332
 H         1.027896         2.767482        -3.456222
 H         2.577113         2.637896        -4.515143
 H         3.285539         0.527491        -3.705545
 H         1.008889        -0.155893        -2.553853
 H         2.363840        -0.595018        -1.822216
 H         0.324084         1.683046        -1.006709
 H         2.066426         3.355725        -0.704028
 H         3.310538         1.880139        -0.267855
 H         2.194478         0.106121         1.032310
