19
Iteration:  1853charge 0 multiplicity 1
 O         4.275103         2.996935        -2.541833
 C         3.107479         2.372504        -2.315512
 C         1.958046         2.501782        -3.271898
 C         2.559743         1.138146        -3.131702
 C         1.768850         0.274994        -2.273836
 C         1.415714         1.157070        -1.028081
 C         2.617554         2.252976        -0.952399
 C         1.344538         0.379883         0.154938
 O         0.450616         0.387623         1.000516
 H         4.917856         2.772000        -1.852025
 H         1.025950         2.803933        -2.749192
 H         2.046290         2.938413        -4.324918
 H         3.106904         0.756810        -3.972665
 H         0.773371        -0.114991        -2.667958
 H         2.407762        -0.570686        -1.889917
 H         0.519712         1.685772        -1.206284
 H         2.176146         3.169215        -0.512775
 H         3.532070         1.814931        -0.276234
 H         2.135222        -0.320945         0.262863
