19
Iteration:   597
 O         4.337468         2.898255        -2.622451
 C         3.026457         2.469608        -2.370864
 C         2.168617         2.547408        -3.552202
 C         2.601078         1.203448        -3.077783
 C         1.720163         0.380407        -2.178664
 C         1.285063         1.267032        -0.940872
 C         2.536701         2.254015        -0.903234
 C         1.287365         0.396353         0.308235
 O         0.479927         0.076047         1.115058
 H         4.184655         3.586819        -3.340440
 H         1.217073         2.842883        -3.525287
 H         2.727227         2.864646        -4.385762
 H         3.282315         0.650876        -3.759600
 H         0.837951        -0.050277        -2.785064
 H         2.406527        -0.519517        -1.953515
 H         0.293891         1.771091        -1.002313
 H         2.233090         3.193719        -0.398892
 H         3.351459         1.728831        -0.266644
 H         2.397332         0.123547         0.461294
