19
Iteration:  1521
 O         4.365738         2.906890        -2.464087
 C         3.079514         2.394276        -2.391870
 C         1.973290         2.661430        -3.388477
 C         2.460262         1.287815        -3.196745
 C         1.760864         0.238425        -2.222850
 C         1.402933         1.240942        -0.974417
 C         2.609015         2.179580        -0.939983
 C         1.391220         0.441887         0.325877
 O         0.409154         0.161367         0.980850
 H         4.545911         2.962601        -3.456308
 H         0.970943         2.841011        -3.062586
 H         2.186343         2.929054        -4.388650
 H         3.088414         0.982497        -4.024093
 H         0.801443        -0.183087        -2.648128
 H         2.509540        -0.520325        -1.740197
 H         0.503532         1.852100        -1.028705
 H         2.513703         2.983040        -0.221909
 H         3.399880         1.590979        -0.365957
 H         2.470956         0.144146         0.467718
