19
Iteration:  4430charge 0 multiplicity 1
 O         4.306412         2.948250        -2.567201
 C         3.086502         2.342331        -2.347324
 C         2.049499         2.379623        -3.489503
 C         2.675846         1.094238        -3.048235
 C         1.809600         0.203472        -2.104626
 C         1.405719         1.275451        -1.024686
 C         2.474071         2.390842        -0.942329
 C         1.350400         0.434182         0.239789
 O         0.400452         0.351492         1.014983
 H         4.183972         3.897268        -2.390082
 H         0.919414         2.541619        -3.413534
 H         2.398423         2.756179        -4.508350
 H         3.380123         0.639474        -3.859673
 H         0.812253        -0.170538        -2.452640
 H         2.433831        -0.658446        -1.667015
 H         0.416807         1.529305        -1.408952
 H         1.931687         3.232340        -0.543006
 H         3.233208         2.160834        -0.161308
 H         2.280977        -0.157091         0.178075
