19
Iteration:  4903charge 0 multiplicity 1
 O         4.326906         2.970705        -2.465952
 C         2.964303         2.411907        -2.471717
 C         2.200569         2.402970        -3.734522
 C         2.723276         1.052315        -3.153361
 C         1.829731         0.270474        -2.190495
 C         1.283438         1.148324        -0.973546
 C         2.331638         2.319362        -0.912089
 C         1.331634         0.418577         0.370975
 O         0.467520         0.384927         1.203504
 H         4.267017         3.968998        -2.470495
 H         1.135394         2.487578        -3.925387
 H         2.788885         2.784713        -4.536664
 H         3.580675         0.602601        -3.634196
 H         0.883382        -0.188644        -2.625787
 H         2.511482        -0.404234        -1.781208
 H         0.294713         1.573847        -1.377028
 H         1.791895         3.177275        -0.410782
 H         3.277003         2.085235        -0.321893
 H         2.299192        -0.057140         0.402232
