19
Iteration:  3134
 O         4.297042         2.870017        -2.376720
 C         2.959057         2.427414        -2.356175
 C         2.114478         2.524689        -3.630923
 C         2.678655         1.196865        -3.145581
 C         1.969366         0.179170        -2.272056
 C         1.279988         0.987686        -1.060780
 C         2.254377         2.228405        -1.005637
 C         1.299631         0.265907         0.269372
 O         0.598373         0.686440         1.225672
 H         4.159394         3.835395        -2.487185
 H         1.072966         2.700285        -3.620424
 H         2.545011         2.788109        -4.585277
 H         3.658539         0.977006        -3.727648
 H         1.158513        -0.189645        -2.914374
 H         2.705022        -0.597882        -2.025818
 H         0.286419         1.307190        -1.139497
 H         1.679853         2.992394        -0.494314
 H         3.214389         2.117609        -0.303105
 H         2.045806        -0.540410         0.480959
