19
Iteration:  2165charge 0 multiplicity 1
 O         4.248752         3.100093        -2.714520
 C         3.130026         2.365533        -2.334593
 C         2.066323         2.473654        -3.244412
 C         2.537513         1.101218        -3.072407
 C         1.840342         0.205535        -2.087213
 C         1.469748         1.224933        -1.051356
 C         2.605533         2.267761        -0.913562
 C         1.319005         0.530353         0.346758
 O         0.287955         0.240382         0.857684
 H         5.059644         2.565880        -2.821381
 H         0.958764         2.482578        -3.027405
 H         2.309503         2.814683        -4.222662
 H         3.115771         0.757567        -3.967248
 H         1.106899        -0.471404        -2.608046
 H         2.478372        -0.659069        -1.668904
 H         0.495840         1.664925        -1.448109
 H         2.158472         3.194861        -0.544010
 H         3.331679         1.872697        -0.247254
 H         2.284266         0.319578         0.872538
