19
Iteration:   795
 O         4.267847         2.887791        -2.474170
 C         2.975857         2.544240        -2.342399
 C         2.016482         2.523970        -3.526733
 C         2.508225         1.179540        -3.121216
 C         1.746749         0.289379        -2.200349
 C         1.443849         1.188557        -0.967443
 C         2.665535         2.147540        -0.968934
 C         1.415806         0.392927         0.274045
 O         0.410076         0.300898         0.995874
 H         4.317603         3.830768        -2.464397
 H         1.065103         2.845033        -3.429938
 H         2.509825         3.010354        -4.386566
 H         3.412870         0.798086        -3.655322
 H         0.771581        -0.143104        -2.659054
 H         2.405825        -0.536016        -1.816209
 H         0.444200         1.647583        -1.002574
 H         2.536050         2.959559        -0.184587
 H         3.714150         1.721873        -0.695381
 H         2.215853        -0.340299         0.516149
