19
Iteration:  1593charge 0 multiplicity 1
 O         4.427289         2.879425        -2.658677
 C         3.125090         2.432311        -2.420384
 C         2.143631         2.695983        -3.521632
 C         2.540040         1.267413        -3.044114
 C         1.547285         0.366280        -2.129960
 C         1.404445         1.255911        -0.783149
 C         2.628572         2.278834        -0.970754
 C         1.329471         0.375048         0.401823
 O         0.388607        -0.064851         0.974391
 H         4.218117         3.406947        -3.464424
 H         1.090460         2.872174        -3.199763
 H         2.347750         2.990591        -4.547314
 H         3.189518         0.853590        -3.775296
 H         0.610616         0.205807        -2.662206
 H         2.050824        -0.556107        -2.019662
 H         0.401258         1.687944        -1.090980
 H         2.166086         3.303791        -0.792512
 H         3.341205         2.014148        -0.124546
 H         2.430227         0.119900         0.582548
