19
Iteration:  3534charge 0 multiplicity 1
 O         4.319028         2.924516        -2.547544
 C         3.084396         2.347088        -2.398901
 C         2.059324         2.384659        -3.498341
 C         2.660766         1.072394        -3.089813
 C         1.781542         0.252684        -2.137229
 C         1.392651         1.329680        -0.929464
 C         2.492752         2.434676        -0.933857
 C         1.346676         0.527639         0.341515
 O         0.373731         0.138451         0.930177
 H         4.202071         3.827736        -2.977963
 H         1.097101         2.708099        -3.276005
 H         2.521217         2.671287        -4.445356
 H         3.349988         0.600310        -3.832274
 H         0.865072        -0.069769        -2.635129
 H         2.391566        -0.596406        -1.692095
 H         0.277317         1.703359        -1.101804
 H         2.142895         3.417244        -0.500010
 H         3.395437         2.104996        -0.451732
 H         2.371473         0.437508         0.876087
