19
Iteration:  1335
 O         4.359593         3.015913        -2.556506
 C         3.078146         2.417636        -2.356307
 C         2.041278         2.608046        -3.364183
 C         2.559535         1.162833        -3.131931
 C         1.817973         0.285312        -2.240642
 C         1.281004         1.157186        -1.050076
 C         2.466056         2.179639        -0.951413
 C         1.347147         0.422066         0.213271
 O         0.490389         0.248248         1.143522
 H         4.984517         2.243849        -2.699802
 H         1.122044         2.964442        -2.970439
 H         2.292245         3.160581        -4.272027
 H         2.901602         0.822862        -4.149893
 H         0.921437        -0.244323        -2.662526
 H         2.514670        -0.384020        -1.907266
 H         0.474584         1.812645        -1.378605
 H         2.149478         3.094096        -0.471550
 H         3.201400         1.783595        -0.275907
 H         2.261073        -0.259493         0.310031
