19
Iteration:  1539charge 0 multiplicity 1
 O         4.357413         2.880924        -2.386890
 C         2.966360         2.426133        -2.378917
 C         1.857874         2.625820        -3.418763
 C         2.511592         1.107639        -3.090566
 C         1.669028         0.398286        -2.121321
 C         1.474634         1.277572        -0.976434
 C         2.671192         2.192603        -0.981638
 C         1.426883         0.427237         0.216109
 O         0.471682         0.169365         0.873810
 H         4.743255         2.818948        -3.313477
 H         0.873801         2.986011        -3.105570
 H         2.194161         3.146582        -4.294257
 H         3.135103         0.634088        -3.829046
 H         0.901003        -0.009766        -2.730866
 H         2.355134        -0.435914        -1.777137
 H         0.464069         1.791644        -1.245030
 H         2.604795         3.027450        -0.225137
 H         3.543905         1.694647        -0.412022
 H         2.501129         0.083234         0.497318
