19
Iteration:  2146
 O         4.321029         2.961425        -2.721007
 C         2.979430         2.405847        -2.375098
 C         1.916436         2.540598        -3.456591
 C         2.660309         1.163686        -3.046561
 C         1.927469         0.217911        -2.114560
 C         1.471340         1.214606        -0.945387
 C         2.575661         2.288083        -0.893862
 C         1.324416         0.488137         0.367759
 O         0.279326         0.227088         0.870525
 H         4.954079         2.607248        -2.078709
 H         0.963661         2.939559        -2.969541
 H         2.305983         3.003409        -4.331376
 H         3.309694         0.613224        -3.756048
 H         1.098679        -0.349529        -2.474223
 H         2.460209        -0.635183        -1.686187
 H         0.486615         1.726736        -1.176681
 H         2.249428         3.245968        -0.504253
 H         3.468155         1.823940        -0.266513
 H         2.344043         0.193089         0.741346
