19
Iteration:  3316charge 0 multiplicity 1
 O         4.350685         2.977490        -2.595237
 C         3.032237         2.364952        -2.373673
 C         2.036888         2.469389        -3.494836
 C         2.660496         1.080425        -3.011493
 C         1.801096         0.202783        -2.125464
 C         1.415706         1.195225        -1.036685
 C         2.551172         2.303194        -0.886809
 C         1.307880         0.571400         0.339877
 O         0.353385         0.233514         0.944624
 H         4.215139         3.900883        -2.818693
 H         1.025402         2.431581        -3.126448
 H         2.156733         2.962562        -4.434219
 H         3.334548         0.781976        -3.857438
 H         0.883209        -0.301947        -2.521524
 H         2.428072        -0.673497        -1.825530
 H         0.519450         1.760272        -1.385633
 H         2.166912         3.321416        -0.494156
 H         3.485679         1.914749        -0.470444
 H         2.369966         0.280412         0.746248
