19
Iteration:  2262
 O         4.431508         2.971733        -2.616774
 C         3.176001         2.361194        -2.371832
 C         1.954379         2.447215        -3.384372
 C         2.590525         1.101887        -3.093964
 C         1.895331         0.180907        -2.107509
 C         1.397476         1.237002        -1.046397
 C         2.533548         2.357296        -0.970926
 C         1.280497         0.507042         0.322714
 O         0.329188         0.251075         0.995643
 H         4.066752         3.879640        -2.641596
 H         0.921800         2.494639        -2.921082
 H         2.001640         2.794005        -4.398101
 H         3.204816         0.656151        -3.898605
 H         0.852969        -0.192267        -2.576268
 H         2.464303        -0.755950        -1.814326
 H         0.363301         1.579105        -1.296437
 H         2.006217         3.373205        -0.860742
 H         3.281384         2.146645        -0.143233
 H         2.257549         0.154208         0.647686
