19
Iteration:  4629
 O         4.337568         2.948261        -2.615793
 C         3.072499         2.404904        -2.450632
 C         2.013706         2.410907        -3.551601
 C         2.670169         1.119260        -3.082573
 C         1.872073         0.196243        -2.029570
 C         1.453095         1.239731        -0.976881
 C         2.564443         2.359669        -0.885490
 C         1.260662         0.550021         0.374733
 O         0.283356         0.208703         0.984354
 H         4.181835         3.795379        -3.045876
 H         0.895138         2.543013        -3.331266
 H         2.379856         2.659120        -4.530759
 H         3.252361         0.515502        -3.783954
 H         0.986687        -0.223671        -2.590489
 H         2.521061        -0.693219        -1.807484
 H         0.551697         1.808147        -1.237686
 H         2.208780         3.326401        -0.569184
 H         3.446871         2.047805        -0.362934
 H         2.275062         0.345164         0.921510
