19
Iteration:  3769charge 0 multiplicity 1
 O         4.274587         3.017371        -2.310803
 C         3.024891         2.319810        -2.446424
 C         2.137017         2.472693        -3.624479
 C         2.628732         1.121513        -3.288146
 C         1.895874         0.225924        -2.340375
 C         1.349145         1.141312        -1.019026
 C         2.398188         2.246720        -1.066991
 C         1.368126         0.345798         0.511889
 O         0.400509         0.490932         1.251184
 H         4.366608         3.606238        -3.080135
 H         1.141683         2.918202        -3.550085
 H         2.710758         2.909827        -4.475668
 H         3.463193         0.509237        -3.772920
 H         0.972956        -0.364731        -2.628715
 H         2.748711        -0.428331        -2.020664
 H         0.270863         1.416157        -1.167402
 H         1.960507         3.164952        -0.805737
 H         3.327005         2.103447        -0.552727
 H         2.124476        -0.438871         0.641306
