19
Iteration:   476
 O         4.384053         2.966987        -2.625824
 C         3.144506         2.393673        -2.430375
 C         2.076465         2.566061        -3.486928
 C         2.526357         1.078240        -3.061740
 C         1.630183         0.340134        -2.149456
 C         1.449675         1.280985        -0.928128
 C         2.533066         2.442319        -0.981622
 C         1.370229         0.472776         0.519370
 O         0.384859        -0.089201         0.910627
 H         4.540369         3.271334        -3.523618
 H         1.155206         3.012998        -3.364161
 H         2.553242         2.670768        -4.413863
 H         3.278115         0.523464        -3.671309
 H         0.654882         0.135757        -2.649945
 H         1.991770        -0.507653        -1.688494
 H         0.441302         1.676263        -0.910945
 H         2.243151         3.430607        -0.639409
 H         3.296931         2.237605        -0.291154
 H         2.294512         0.607189         1.153682
