19
Iteration:  4977charge 0 multiplicity 1
 O         4.282089         2.892830        -2.535543
 C         3.019352         2.428945        -2.398142
 C         2.036631         2.449583        -3.492278
 C         2.730384         1.050856        -3.041452
 C         1.901515         0.104710        -2.145598
 C         1.405537         1.212201        -1.069851
 C         2.403610         2.356650        -0.954999
 C         1.383189         0.562481         0.335220
 O         0.371704         0.341075         0.985319
 H         4.210544         3.796224        -2.777079
 H         0.928941         2.556957        -3.256530
 H         2.392773         2.875292        -4.426374
 H         3.481798         0.613859        -3.692175
 H         0.954390        -0.244878        -2.470659
 H         2.441420        -0.634038        -1.408484
 H         0.371822         1.493714        -1.235886
 H         1.964855         3.275429        -0.687710
 H         3.244616         2.062671        -0.340660
 H         2.501369         0.481144         0.635452
