19
Iteration:  2571
 O         4.317742         2.947304        -2.573280
 C         3.072701         2.395149        -2.392752
 C         1.968599         2.381621        -3.419059
 C         2.689252         1.089135        -3.083028
 C         1.841817         0.169801        -2.212434
 C         1.455968         1.295948        -0.938581
 C         2.524188         2.349200        -0.898488
 C         1.277692         0.374338         0.239144
 O         0.380558         0.430634         0.995241
 H         4.290418         3.898093        -2.337808
 H         0.963413         2.393449        -3.089194
 H         2.081341         2.763956        -4.431923
 H         3.262993         0.579129        -3.928005
 H         0.934011        -0.349315        -2.823115
 H         2.555585        -0.648727        -1.918935
 H         0.474971         1.788109        -1.141228
 H         2.258014         3.316000        -0.418111
 H         3.375309         1.852366        -0.248472
 H         2.185814        -0.289423         0.380585
