19
Iteration:  4532charge 0 multiplicity 1
 O         4.405062         2.824631        -2.614555
 C         3.097345         2.404205        -2.313244
 C         2.036354         2.403762        -3.515118
 C         2.585369         1.099234        -3.025542
 C         1.824884         0.214146        -2.051920
 C         1.392486         1.335208        -0.997279
 C         2.439061         2.508237        -1.043855
 C         1.331232         0.550676         0.309236
 O         0.399378         0.119124         0.965099
 H         4.305253         3.787138        -2.631738
 H         0.975051         2.648257        -3.318449
 H         2.535143         2.717883        -4.408863
 H         3.217564         0.661242        -3.728719
 H         0.930943        -0.297487        -2.474058
 H         2.487921        -0.462833        -1.442615
 H         0.369694         1.579984        -1.254441
 H         1.808141         3.509986        -0.889924
 H         3.210127         2.295116        -0.274149
 H         2.328701         0.271591         0.796328
