19
Iteration:  1883
 O         4.246563         3.021147        -2.531103
 C         3.009445         2.421332        -2.316370
 C         2.091536         2.540266        -3.516771
 C         2.647224         1.196728        -3.184708
 C         1.763724         0.357412        -2.306033
 C         1.356470         1.083550        -0.946842
 C         2.575613         2.157926        -0.875953
 C         1.335011         0.332612         0.291109
 O         0.432666         0.378532         1.111197
 H         4.911923         2.501799        -3.046381
 H         1.041562         2.911206        -3.311158
 H         2.594812         3.063674        -4.403518
 H         3.305016         0.743526        -3.856032
 H         0.823687        -0.007565        -2.716413
 H         2.263015        -0.606587        -2.012203
 H         0.377206         1.594908        -1.073765
 H         2.256561         2.957698        -0.254825
 H         3.387267         1.683922        -0.393779
 H         2.333565        -0.296750         0.393570
