19
Iteration:   566charge 0 multiplicity 1
 O         4.418799         2.849208        -2.507583
 C         3.059554         2.395186        -2.437222
 C         2.054249         2.519993        -3.458037
 C         2.496724         1.148692        -3.183761
 C         1.705223         0.287311        -2.167528
 C         1.383607         1.273659        -0.897200
 C         2.449946         2.383818        -1.065218
 C         1.455522         0.524835         0.389462
 O         0.450531         0.039735         0.976733
 H         4.508073         3.679818        -2.031052
 H         1.118826         2.850097        -3.097926
 H         2.437156         2.955399        -4.365283
 H         3.206844         0.712397        -3.894522
 H         0.753612         0.047414        -2.695731
 H         2.284442        -0.573101        -2.152099
 H         0.344744         1.663092        -0.789103
 H         2.077133         3.396641        -0.842988
 H         3.162500         2.287675        -0.321855
 H         2.459513         0.346711         0.847378
