19
Iteration:  3451
 O         4.337480         2.822847        -2.573966
 C         3.008488         2.398409        -2.460557
 C         2.154137         2.505842        -3.661486
 C         2.597970         1.156937        -3.136527
 C         1.823882         0.324688        -2.128665
 C         1.403810         1.245243        -0.846843
 C         2.452789         2.412729        -0.992813
 C         1.338780         0.603217         0.638954
 O         0.326820         0.008941         0.918454
 H         4.401070         3.760030        -2.709858
 H         1.110752         2.864433        -3.716157
 H         2.871375         2.843712        -4.506616
 H         3.280641         0.628360        -3.740671
 H         0.971290        -0.353976        -2.392007
 H         2.568497        -0.423298        -1.943498
 H         0.403148         1.482036        -1.142071
 H         2.125141         3.361962        -0.626907
 H         3.400430         2.224233        -0.447002
 H         2.389337         0.532559         1.101039
