19
Iteration:  3176
 O         4.215293         3.072971        -2.263115
 C         3.047634         2.309313        -2.358531
 C         2.040864         2.450833        -3.499182
 C         2.714355         1.129528        -3.209879
 C         1.816278         0.187792        -2.320193
 C         1.357029         0.963766        -1.153160
 C         2.395456         2.098535        -0.956173
 C         1.381419         0.386511         0.285907
 O         0.552646         0.734828         1.140849
 H         4.127838         3.942509        -2.606955
 H         0.998565         2.563813        -3.434583
 H         2.521958         2.669849        -4.492555
 H         3.414267         0.631781        -4.003104
 H         0.865556        -0.107584        -2.843227
 H         2.285205        -0.716651        -1.995729
 H         0.361711         1.302299        -1.359494
 H         2.128329         3.064144        -0.726597
 H         3.243988         1.718312        -0.277054
 H         2.248755        -0.285604         0.578143
