19
Iteration:   973charge 0 multiplicity 1
 O         4.419595         2.832911        -2.501959
 C         3.077487         2.441088        -2.398572
 C         2.007942         2.553771        -3.519500
 C         2.442142         1.167008        -3.155195
 C         1.723962         0.295117        -2.121629
 C         1.419018         1.379835        -0.814088
 C         2.537729         2.359129        -0.898604
 C         1.387595         0.418988         0.252226
 O         0.415328         0.037131         0.918412
 H         4.558642         3.608939        -3.065046
 H         1.013223         2.958206        -3.254341
 H         2.321166         3.043139        -4.542787
 H         3.246361         0.854462        -3.738757
 H         0.883651        -0.377721        -2.526392
 H         2.434102        -0.523880        -1.854416
 H         0.420264         1.930403        -1.025056
 H         2.236860         3.352719        -0.401893
 H         3.450164         1.806953        -0.526669
 H         2.441205         0.042471         0.472731
