19
Iteration:  3901charge 0 multiplicity 1
 O         4.252284         2.893365        -2.498328
 C         2.974886         2.381227        -2.416182
 C         2.063716         2.481041        -3.599020
 C         2.699173         1.087898        -3.121908
 C         1.857395         0.249965        -2.135798
 C         1.494635         1.175240        -1.024088
 C         2.527438         2.321020        -0.930792
 C         1.314299         0.561535         0.398853
 O         0.332869         0.266454         1.027077
 H         4.181883         3.650228        -3.101520
 H         1.057561         2.717470        -3.404793
 H         2.510262         2.979766        -4.441316
 H         3.600929         0.644635        -3.487960
 H         0.958260        -0.236819        -2.615681
 H         2.529083        -0.581847        -1.815243
 H         0.407245         1.621240        -1.198120
 H         2.007594         3.131900        -0.502990
 H         3.428777         2.258352        -0.370935
 H         2.288908         0.165176         0.761744
