19
Iteration:  4938charge 0 multiplicity 1
 O         4.347352         2.994390        -2.514911
 C         3.014131         2.401360        -2.395669
 C         2.100058         2.379419        -3.616110
 C         2.734386         0.984871        -3.088741
 C         1.788669         0.245077        -2.116095
 C         1.385355         1.174895        -0.978831
 C         2.389074         2.454376        -0.986555
 C         1.313739         0.412157         0.278451
 O         0.441291         0.352613         1.119514
 H         4.334525         3.995318        -2.530882
 H         1.050569         2.500061        -3.543731
 H         2.512637         2.668237        -4.559295
 H         3.516404         0.510990        -3.692684
 H         1.002969        -0.392268        -2.732761
 H         2.235729        -0.701498        -1.799663
 H         0.329080         1.644961        -1.195823
 H         1.827284         3.449644        -0.760852
 H         3.181774         2.346225        -0.188754
 H         2.205712        -0.190821         0.512661
