19
Iteration:  2344
 O         4.434971         2.918596        -2.495121
 C         3.074782         2.360625        -2.419917
 C         2.077690         2.510896        -3.632698
 C         2.688345         1.112507        -3.032216
 C         1.757378         0.243197        -2.179766
 C         1.366793         1.219942        -0.992083
 C         2.325803         2.348018        -1.037349
 C         1.341846         0.392847         0.303933
 O         0.467364         0.300080         1.136262
 H         4.085026         3.832847        -2.653790
 H         1.157042         2.986423        -3.217741
 H         2.322745         2.874810        -4.591436
 H         3.357944         0.482351        -3.634455
 H         0.889772        -0.073834        -2.687139
 H         2.323344        -0.707517        -1.678742
 H         0.285422         1.510513        -1.040526
 H         1.739018         3.151560        -0.715000
 H         3.049900         2.267987        -0.269527
 H         2.287319        -0.076410         0.447903
