19
Iteration:  2309
 O         4.244542         2.810520        -2.500468
 C         2.905964         2.405351        -2.376534
 C         2.087516         2.524181        -3.711154
 C         2.614677         1.092163        -3.172333
 C         1.872525         0.277278        -2.169120
 C         1.497880         1.212577        -0.974509
 C         2.436869         2.364155        -0.898745
 C         1.377600         0.493180         0.331248
 O         0.394217         0.269734         1.081400
 H         4.471065         3.425126        -1.763895
 H         1.090716         2.869880        -3.754163
 H         2.794759         2.901851        -4.497016
 H         3.432917         0.624600        -3.696095
 H         0.985447        -0.367637        -2.404107
 H         2.680061        -0.503369        -1.734720
 H         0.543575         1.790683        -1.055661
 H         2.078332         3.308288        -0.555493
 H         3.382977         2.142172        -0.492432
 H         2.310242         0.099312         0.643042
