19
Iteration:  3885
 O         4.271858         2.915642        -2.500201
 C         2.984470         2.452508        -2.398977
 C         2.148912         2.433858        -3.686463
 C         2.592890         1.137590        -3.101984
 C         1.875791         0.199047        -2.214517
 C         1.433128         1.161087        -0.875993
 C         2.483936         2.356963        -0.980484
 C         1.371093         0.418096         0.435819
 O         0.314346         0.314492         1.051140
 H         4.288714         3.909917        -2.623309
 H         1.075089         2.668767        -3.940419
 H         2.819742         2.719825        -4.537982
 H         3.338308         0.802927        -3.879923
 H         0.952353        -0.245821        -2.544892
 H         2.551727        -0.537771        -1.767097
 H         0.487743         1.608520        -1.188935
 H         2.150974         3.406577        -0.568114
 H         3.449866         1.904712        -0.477458
 H         2.331702         0.173377         0.923582
