19
Iteration:  4003
 O         4.314087         2.953828        -2.706221
 C         2.979645         2.444637        -2.392820
 C         2.034791         2.385196        -3.499024
 C         2.684881         1.110734        -3.047281
 C         1.888894         0.238531        -2.075509
 C         1.474868         1.233365        -0.939397
 C         2.609808         2.293419        -0.935668
 C         1.289745         0.594238         0.460346
 O         0.222753         0.161362         0.910043
 H         4.270202         3.833637        -2.309847
 H         0.967557         2.875389        -3.367215
 H         2.510019         2.703094        -4.431069
 H         3.431844         0.774761        -3.874292
 H         1.026075        -0.239758        -2.687122
 H         2.545327        -0.651279        -1.763231
 H         0.482290         1.589700        -1.174727
 H         2.433071         3.341526        -0.710334
 H         3.505394         1.915695        -0.547602
 H         2.195105         0.412963         1.084829
