19
Iteration:  2998charge 0 multiplicity 1
 O         4.292814         3.068383        -2.346736
 C         3.031825         2.380787        -2.429043
 C         1.926516         2.475011        -3.294960
 C         2.688818         1.046921        -3.077186
 C         1.934315         0.130641        -2.190079
 C         1.412126         1.139004        -1.071331
 C         2.516225         2.161882        -1.075902
 C         1.306245         0.409261         0.164489
 O         0.421948         0.568461         1.019336
 H         4.342958         3.606289        -3.147958
 H         0.794044         2.494665        -3.126846
 H         2.173440         2.701157        -4.400754
 H         3.292916         0.685596        -3.968872
 H         0.985798        -0.396371        -2.513347
 H         2.616402        -0.587872        -1.767650
 H         0.364902         1.580081        -1.272044
 H         2.152523         3.169912        -0.611059
 H         3.342059         1.808803        -0.341448
 H         2.224093        -0.154271         0.418503
