19
Iteration:  3482
 O         4.400765         2.832803        -2.588356
 C         3.005583         2.473079        -2.428740
 C         2.045195         2.391279        -3.594139
 C         2.663998         1.141052        -2.999126
 C         1.745345         0.325566        -2.057445
 C         1.389163         1.329251        -0.916862
 C         2.488697         2.436022        -0.975170
 C         1.355224         0.535010         0.386986
 O         0.364605         0.036173         0.917928
 H         4.482010         3.823762        -2.555445
 H         0.993193         2.504150        -3.566651
 H         2.528696         2.731073        -4.522780
 H         3.430091         0.587003        -3.517943
 H         0.789735        -0.129686        -2.368060
 H         2.418585        -0.450412        -1.725682
 H         0.461966         1.643786        -1.284497
 H         2.025096         3.415522        -0.664470
 H         3.469263         2.281115        -0.411243
 H         2.351230         0.111789         0.688777
