19
Iteration:  2025charge 0 multiplicity 1
 O         4.364424         3.089249        -2.349261
 C         3.057065         2.339684        -2.467656
 C         2.182025         2.531955        -3.662170
 C         2.490062         1.148302        -3.137988
 C         1.638458         0.288154        -2.136384
 C         1.334771         1.220595        -0.902723
 C         2.451831         2.302262        -0.949709
 C         1.465363         0.333450         0.286640
 O         0.475565         0.254957         1.053086
 H         4.815705         2.397941        -2.914195
 H         1.064807         2.759374        -3.706743
 H         2.819766         2.715563        -4.643411
 H         3.003082         0.605544        -3.958652
 H         0.739494        -0.141280        -2.493296
 H         2.244719        -0.585342        -2.037082
 H         0.239002         1.596094        -0.848189
 H         1.995155         3.285818        -0.825116
 H         3.330404         2.081638        -0.238461
 H         2.390681        -0.177644         0.390084
