19
Iteration:  4290
 O         4.293421         3.019203        -2.641013
 C         3.067206         2.424436        -2.414343
 C         2.173611         2.472857        -3.583598
 C         2.647546         1.171867        -3.091626
 C         1.916602         0.244997        -2.229756
 C         1.378463         1.026178        -1.033026
 C         2.534488         2.259066        -0.904337
 C         1.236349         0.309480         0.396017
 O         0.303246         0.488047         1.197137
 H         3.957095         3.932181        -2.365392
 H         0.898932         2.681691        -3.481922
 H         2.538699         2.623210        -4.596077
 H         3.291686         0.465091        -3.871851
 H         1.208691        -0.528847        -2.690908
 H         2.839657        -0.339572        -2.014333
 H         0.286916         1.443588        -1.179073
 H         1.958040         3.176820        -0.519472
 H         3.437862         1.969929        -0.264853
 H         2.099379        -0.429626         0.750669
