19
Iteration:  3985
 O         4.302924         2.911920        -2.648797
 C         3.019041         2.499872        -2.439442
 C         2.028622         2.452809        -3.689082
 C         2.643207         1.164568        -3.051129
 C         1.922033         0.253758        -2.083980
 C         1.527453         1.209498        -0.845553
 C         2.613239         2.291070        -0.906353
 C         1.309192         0.499827         0.470276
 O         0.178960         0.193305         0.912331
 H         4.278379         3.827176        -2.961052
 H         0.924834         2.445087        -3.697716
 H         2.361864         2.884065        -4.627215
 H         3.427924         0.664850        -3.491701
 H         0.995906        -0.245046        -2.267828
 H         2.551137        -0.609485        -1.716479
 H         0.529854         1.625518        -1.081939
 H         2.114784         3.042891        -0.152784
 H         3.608574         1.818672        -0.472506
 H         2.252514         0.410779         1.122006
