19
Iteration:  1115
 O         4.349179         2.914829        -2.603982
 C         3.006359         2.420609        -2.358377
 C         1.919673         2.608932        -3.385708
 C         2.609707         1.228783        -3.136603
 C         1.821124         0.322562        -2.211663
 C         1.492912         1.163904        -0.879437
 C         2.662241         2.168774        -0.868596
 C         1.353522         0.353805         0.349667
 O         0.310443         0.245569         0.891932
 H         4.303392         3.645970        -3.286130
 H         0.828058         2.792131        -3.234387
 H         2.244121         2.999920        -4.392192
 H         3.348893         0.658382        -3.754616
 H         0.932035        -0.112807        -2.843656
 H         2.375758        -0.541724        -1.908982
 H         0.494641         1.668998        -1.023206
 H         2.133080         3.041221        -0.436288
 H         3.593572         1.958100        -0.367282
 H         2.321398         0.118205         0.861963
