19
Iteration:  1965
 O         4.381057         2.801607        -2.571372
 C         3.012148         2.410370        -2.244194
 C         2.078883         2.543270        -3.428028
 C         2.637948         1.172732        -3.067126
 C         1.716645         0.287929        -2.284311
 C         1.292995         1.202446        -1.147528
 C         2.328896         2.325140        -0.908715
 C         1.458481         0.441846         0.193152
 O         0.575438         0.314150         1.066980
 H         4.630465         3.202219        -1.697350
 H         1.057398         2.641495        -3.119795
 H         2.241382         2.789167        -4.391282
 H         3.264969         0.657590        -3.856329
 H         0.733161        -0.040435        -2.767101
 H         2.348913        -0.574901        -1.922552
 H         0.300359         1.589921        -1.224692
 H         1.825965         3.216240        -0.394741
 H         3.087261         1.985302        -0.047266
 H         2.418698         0.083815         0.459260
