19
Iteration:   547
 O         4.391108         2.716213        -2.453367
 C         2.984998         2.359863        -2.404593
 C         1.907355         2.567050        -3.525487
 C         2.552938         1.154781        -3.092420
 C         1.705552         0.338588        -2.112428
 C         1.501719         1.286254        -0.997630
 C         2.446793         2.459183        -0.973939
 C         1.570070         0.532119         0.370016
 O         0.477487         0.088597         0.808861
 H         4.293771         3.223513        -1.658084
 H         0.778280         2.761438        -3.112663
 H         2.195758         2.786295        -4.608601
 H         3.144301         0.715676        -3.868861
 H         0.774216        -0.030143        -2.487497
 H         2.327872        -0.545016        -1.759434
 H         0.445644         1.646111        -1.073092
 H         1.879566         3.386871        -0.728071
 H         3.210983         2.389870        -0.127271
 H         2.544314         0.408655         0.895184
