19
Iteration:   881charge 0 multiplicity 1
 O         4.339144         2.760614        -2.508230
 C         2.947049         2.422116        -2.360235
 C         2.039601         2.611710        -3.544043
 C         2.506736         1.199904        -3.153441
 C         1.713806         0.333163        -2.141659
 C         1.391818         1.315577        -0.962502
 C         2.566060         2.373690        -0.921567
 C         1.456123         0.386085         0.296594
 O         0.463100         0.124259         0.942373
 H         4.367588         3.615736        -2.041304
 H         1.028758         2.823976        -3.637735
 H         2.678042         2.998890        -4.319162
 H         3.138042         0.490740        -3.808903
 H         0.843909        -0.315238        -2.408402
 H         2.445854        -0.380742        -1.781166
 H         0.455629         1.771667        -0.877479
 H         2.356575         3.231271        -0.330946
 H         3.384609         1.787404        -0.553299
 H         2.523667         0.111162         0.581824
