19
Iteration:  3428
 O         4.414354         2.876096        -2.543851
 C         3.082156         2.392497        -2.447537
 C         2.054450         2.504527        -3.551573
 C         2.562322         1.104630        -3.033551
 C         1.795050         0.233059        -2.036130
 C         1.362646         1.244673        -0.991499
 C         2.480331         2.370874        -0.972721
 C         1.354314         0.615439         0.390328
 O         0.400554         0.056272         0.899653
 H         4.376690         3.873865        -2.678429
 H         1.186440         2.960744        -3.143369
 H         2.319296         2.820537        -4.576989
 H         3.124621         0.539599        -3.805533
 H         0.867591        -0.262533        -2.405880
 H         2.377888        -0.614030        -1.701940
 H         0.397500         1.497509        -1.298656
 H         2.049134         3.353785        -0.787064
 H         3.293822         2.250316        -0.229658
 H         2.193632         1.064913         0.976531
