19
Iteration:   963
 O         4.350847         2.759023        -2.578449
 C         2.981343         2.438408        -2.337029
 C         2.035944         2.582418        -3.488423
 C         2.587632         1.202132        -3.137749
 C         1.726637         0.321223        -2.162459
 C         1.330060         1.371409        -0.924264
 C         2.586709         2.362388        -0.869629
 C         1.402835         0.432266         0.318117
 O         0.446418         0.034177         0.904537
 H         4.405412         3.582211        -3.049960
 H         0.986926         2.772064        -3.280936
 H         2.505300         3.081445        -4.410037
 H         3.300304         0.732182        -3.781438
 H         0.775677        -0.128285        -2.498640
 H         2.431902        -0.413940        -1.678879
 H         0.309194         1.886528        -0.933018
 H         2.404974         3.367089        -0.350344
 H         3.403314         1.942299        -0.171170
 H         2.421623        -0.041856         0.483602
