19
Iteration:  4540
 O         4.423609         2.833417        -2.645923
 C         3.154934         2.355572        -2.345284
 C         1.980170         2.341756        -3.477396
 C         2.626949         1.079751        -3.030215
 C         1.853793         0.290068        -2.081268
 C         1.320390         1.373806        -0.954820
 C         2.381967         2.461405        -0.970696
 C         1.351122         0.563813         0.305313
 O         0.414830         0.135639         0.925929
 H         4.410579         3.815170        -2.641199
 H         0.961510         2.612787        -3.199334
 H         2.360992         2.779402        -4.487957
 H         3.365255         0.688245        -3.625015
 H         0.970006        -0.244552        -2.514597
 H         2.484279        -0.537915        -1.624759
 H         0.371949         1.754900        -1.298214
 H         1.786342         3.290928        -0.701436
 H         3.038400         2.338874        -0.101348
 H         2.325258         0.398870         0.693628
