19
Iteration:   770
 O         4.264661         2.941123        -2.624353
 C         3.056595         2.369347        -2.350737
 C         1.899113         2.555982        -3.497071
 C         2.721653         1.224146        -3.174720
 C         1.849319         0.344674        -2.282640
 C         1.369554         1.173372        -0.987739
 C         2.667200         2.074382        -0.801512
 C         1.288908         0.375439         0.320458
 O         0.391030         0.326463         1.081636
 H         4.228065         3.848622        -2.264627
 H         0.821636         2.802603        -3.333185
 H         2.269855         3.129219        -4.308516
 H         3.513463         0.875435        -3.814099
 H         0.925955         0.212278        -2.817305
 H         2.220698        -0.653382        -1.989274
 H         0.461044         1.647804        -1.119537
 H         2.493017         2.946871        -0.218028
 H         3.574922         1.544783        -0.425528
 H         2.285941        -0.039547         0.592584
