19
Iteration:  4562
 O         4.318485         2.823042        -2.640832
 C         3.052255         2.420608        -2.358374
 C         2.043719         2.383205        -3.471997
 C         2.755321         1.037430        -2.984080
 C         1.793455         0.307569        -2.071167
 C         1.346517         1.323906        -0.972863
 C         2.474059         2.465407        -1.000653
 C         1.383532         0.575546         0.336098
 O         0.384094         0.153044         0.882622
 H         4.341505         3.795964        -2.655512
 H         0.947385         2.314760        -3.255192
 H         2.310085         2.847212        -4.479855
 H         3.357964         0.603896        -3.649411
 H         0.910271        -0.168967        -2.569614
 H         2.207586        -0.539767        -1.474136
 H         0.302517         1.545072        -1.142433
 H         2.084148         3.377022        -0.589598
 H         3.279866         2.115206        -0.357532
 H         2.350468         0.328698         0.906337
