19
Iteration:  3363charge 0 multiplicity 1
 O         4.345154         2.929340        -2.671672
 C         3.035279         2.489765        -2.465642
 C         2.111090         2.456864        -3.638866
 C         2.597341         1.116486        -3.072514
 C         1.800919         0.234588        -1.999745
 C         1.447297         1.257463        -0.785826
 C         2.616330         2.481979        -0.965401
 C         1.287594         0.395604         0.384225
 O         0.243346         0.085970         0.962639
 H         4.429596         3.888969        -2.768696
 H         1.090294         2.844863        -3.747778
 H         2.728095         2.805224        -4.497101
 H         3.489737         0.514316        -3.569486
 H         0.797749        -0.204272        -2.335278
 H         2.451159        -0.637752        -1.798571
 H         0.536949         1.747085        -0.973131
 H         2.099219         3.308851        -0.681283
 H         3.480228         2.278237        -0.368276
 H         2.239652         0.015239         0.939110
