19
Iteration:  2660charge 0 multiplicity 1
 O         4.363416         2.883028        -2.638719
 C         3.089498         2.374062        -2.408496
 C         1.980606         2.485647        -3.535696
 C         2.591529         1.120567        -3.086471
 C         1.844769         0.259778        -2.052892
 C         1.411428         1.238632        -0.887540
 C         2.564318         2.354599        -0.964528
 C         1.349636         0.554015         0.381417
 O         0.299307         0.147496         0.893969
 H         4.583528         3.793873        -2.318239
 H         0.946005         2.651692        -3.282630
 H         2.451883         3.064242        -4.309196
 H         3.239181         0.514031        -3.650489
 H         0.915799        -0.220871        -2.604929
 H         2.448644        -0.645860        -1.868334
 H         0.412624         1.677319        -0.993359
 H         2.216063         3.345657        -0.785328
 H         3.443472         2.211990        -0.304041
 H         2.270742         0.468768         1.007352
