19
Iteration:  3577charge 0 multiplicity 1
 O         4.326613         2.894908        -2.569644
 C         2.944897         2.394758        -2.374242
 C         2.119355         2.557191        -3.630665
 C         2.582420         1.097919        -3.127757
 C         1.920667         0.256231        -2.163379
 C         1.496009         1.197843        -0.956322
 C         2.524666         2.371237        -0.922150
 C         1.308960         0.492780         0.439899
 O         0.273609         0.190518         1.045101
 H         4.275714         3.878691        -2.788606
 H         1.084729         2.729281        -3.612059
 H         2.548122         2.564642        -4.639664
 H         3.339688         0.580956        -3.807522
 H         1.031818        -0.303918        -2.468638
 H         2.695005        -0.528813        -1.840009
 H         0.366204         1.643067        -1.043147
 H         2.198062         3.422597        -0.753217
 H         3.331037         2.089202        -0.369213
 H         2.272841         0.144101         0.867262
