19
Iteration:  4547
 O         4.429937         2.837935        -2.658520
 C         3.083772         2.323365        -2.395826
 C         1.998084         2.333184        -3.459558
 C         2.702028         1.098809        -3.031220
 C         1.841455         0.328487        -2.059266
 C         1.297312         1.334451        -0.971636
 C         2.366373         2.425123        -0.895131
 C         1.372117         0.595820         0.314073
 O         0.394307         0.138062         0.903330
 H         4.484661         3.831255        -2.657231
 H         1.000186         2.556931        -3.119916
 H         2.089103         2.753186        -4.455723
 H         3.493541         0.471912        -3.697549
 H         1.005112        -0.141338        -2.552030
 H         2.454882        -0.476565        -1.721722
 H         0.288790         1.802542        -1.150306
 H         1.970044         3.475237        -0.757138
 H         3.031115         2.340609        -0.010649
 H         2.580012         0.493687         0.515807
