19
Iteration:  4026
 O         4.349555         3.022127        -2.668626
 C         3.137095         2.263929        -2.362254
 C         1.970938         2.414601        -3.401149
 C         2.648620         1.018495        -3.158922
 C         1.856777         0.250741        -1.962612
 C         1.441854         1.275981        -0.992452
 C         2.511227         2.344573        -0.898102
 C         1.311814         0.662781         0.333441
 O         0.316696         0.178966         0.837547
 H         4.344032         3.790725        -2.014799
 H         0.869715         2.241735        -3.054817
 H         2.092320         3.007444        -4.326499
 H         3.071459         0.373749        -3.946956
 H         1.051890        -0.294669        -2.520075
 H         2.603190        -0.557587        -1.644909
 H         0.509842         1.695135        -1.292026
 H         2.235249         3.393541        -0.825350
 H         3.242566         2.027375        -0.221593
 H         2.297077         0.337152         0.771697
