19
Iteration:   529
 O         4.341325         2.637874        -2.502941
 C         2.967838         2.482925        -2.339964
 C         1.971313         2.505845        -3.527460
 C         2.461095         1.183979        -3.072534
 C         1.823481         0.284966        -2.107274
 C         1.405828         1.370231        -0.876515
 C         2.432592         2.494083        -0.971486
 C         1.504417         0.557912         0.271006
 O         0.508840         0.037104         0.795865
 H         4.807066         3.226612        -1.904867
 H         0.952011         2.819250        -3.291905
 H         2.339347         2.939777        -4.448274
 H         3.249454         0.684775        -3.665877
 H         0.880375        -0.227235        -2.372476
 H         2.490848        -0.513025        -1.587207
 H         0.403907         1.643635        -1.125207
 H         2.014627         3.460099        -0.669655
 H         3.396028         2.241765        -0.395842
 H         2.579296         0.358546         0.588499
