19
Iteration:  2711charge 0 multiplicity 1
 O         4.369293         2.847699        -2.628532
 C         3.057132         2.412321        -2.395051
 C         2.043586         2.406031        -3.534647
 C         2.661231         1.106120        -2.998416
 C         1.674320         0.369314        -2.010040
 C         1.420047         1.374483        -0.933953
 C         2.498922         2.395668        -0.939797
 C         1.391762         0.556479         0.399470
 O         0.359280         0.015346         0.829344
 H         4.529608         3.672507        -3.114108
 H         0.990882         2.540653        -3.452739
 H         2.407068         2.609176        -4.567602
 H         3.535752         0.613417        -3.521951
 H         0.701933         0.108600        -2.511384
 H         2.293699        -0.485623        -1.578405
 H         0.512334         2.016840        -1.058744
 H         2.108875         3.397506        -0.509846
 H         3.426385         2.101630        -0.404931
 H         2.386404         0.166751         0.785279
