19
Iteration:  3067charge 0 multiplicity 1
 O         4.337226         3.013691        -2.465924
 C         2.971531         2.469011        -2.357328
 C         2.131633         2.418663        -3.616418
 C         2.689033         1.132196        -3.142211
 C         1.869149         0.205392        -2.272677
 C         1.332396         1.044994        -1.009217
 C         2.326448         2.237252        -0.959374
 C         1.228798         0.272789         0.292588
 O         0.554226         0.573211         1.206608
 H         4.265895         3.994456        -2.358502
 H         1.072292         2.399218        -3.764576
 H         2.587206         2.834280        -4.499163
 H         3.567653         0.733221        -3.570497
 H         1.036173        -0.164539        -2.902972
 H         2.443672        -0.652788        -1.880856
 H         0.426398         1.471875        -1.305180
 H         1.924723         3.126103        -0.526989
 H         3.292823         2.056273        -0.298395
 H         2.050206        -0.535753         0.374800
