19
Iteration:  3224charge 0 multiplicity 1
 O         4.287820         2.950623        -2.597665
 C         2.972532         2.388230        -2.320253
 C         2.065397         2.447166        -3.512333
 C         2.735087         1.161749        -3.102404
 C         1.957410         0.264677        -2.195825
 C         1.372175         1.106056        -0.996516
 C         2.449801         2.189686        -0.908852
 C         1.213048         0.285250         0.219878
 O         0.473893         0.571127         1.132051
 H         3.996578         3.926598        -2.513905
 H         0.941749         2.648788        -3.385199
 H         2.544804         3.046071        -4.269447
 H         3.394743         0.655074        -3.849024
 H         1.126051        -0.242180        -2.686578
 H         2.718067        -0.480711        -1.799942
 H         0.418777         1.585287        -1.387460
 H         1.764963         3.123284        -0.519752
 H         3.370361         1.930289        -0.178167
 H         1.870972        -0.640938         0.172680
