19
Iteration:  5000
 O         4.362729         2.937149        -2.551002
 C         3.045003         2.377952        -2.424494
 C         2.011323         2.412898        -3.606431
 C         2.595861         1.130225        -3.136491
 C         1.978074         0.255546        -2.109945
 C         1.427180         1.137562        -0.984554
 C         2.487165         2.299503        -0.974388
 C         1.281154         0.583552         0.431070
 O         0.284154         0.269033         1.050525
 H         4.151529         3.911546        -2.609774
 H         0.958626         2.706091        -3.518786
 H         2.532882         2.613492        -4.529709
 H         3.250916         0.535668        -3.722408
 H         1.245325        -0.421692        -2.589661
 H         2.881487        -0.266237        -1.548572
 H         0.333288         1.419125        -1.083780
 H         2.134976         3.304081        -0.798073
 H         3.360418         2.005262        -0.387841
 H         2.401680         0.530000         0.793257
