19
Iteration:  3354charge 0 multiplicity 1
 O         4.376882         2.963295        -2.669967
 C         3.021497         2.431387        -2.459737
 C         2.133397         2.490619        -3.699197
 C         2.644081         1.097243        -3.127367
 C         1.775785         0.296194        -2.015976
 C         1.485478         1.204354        -0.811035
 C         2.607423         2.480920        -0.958742
 C         1.256888         0.405471         0.473941
 O         0.211577         0.075164         0.999198
 H         4.149933         3.888085        -2.783137
 H         1.086743         2.743595        -3.484333
 H         2.629435         2.952018        -4.636930
 H         3.326816         0.433143        -3.655244
 H         0.925756        -0.239831        -2.471891
 H         2.388047        -0.504305        -1.553967
 H         0.470861         1.585333        -0.941558
 H         2.204284         3.370546        -0.597782
 H         3.546383         2.324889        -0.435417
 H         2.273078        -0.043671         0.799976
