19
Iteration:  4185charge 0 multiplicity 1
 O         4.438271         2.928639        -2.565118
 C         3.063229         2.447374        -2.424052
 C         2.157412         2.470986        -3.682232
 C         2.630404         1.105746        -3.170171
 C         1.793627         0.269052        -2.115998
 C         1.371540         1.181838        -0.943590
 C         2.335284         2.363248        -0.986292
 C         1.283416         0.400440         0.413843
 O         0.384770         0.225759         1.182886
 H         4.246833         3.917108        -2.530521
 H         1.108415         2.630119        -3.551972
 H         2.704661         2.785758        -4.510668
 H         3.368200         0.478296        -3.749292
 H         0.938956        -0.245212        -2.590044
 H         2.728417        -0.419850        -1.948000
 H         0.345734         1.629700        -1.196208
 H         1.721530         3.286570        -0.826550
 H         3.231856         2.496116        -0.282132
 H         2.334471         0.106850         0.543515
