19
Iteration:  4716
 O         4.243714         2.947554        -2.581297
 C         2.990249         2.453516        -2.446267
 C         2.062751         2.426309        -3.542588
 C         2.683201         1.113958        -3.150892
 C         1.983449         0.242243        -2.097916
 C         1.458167         1.080499        -0.978648
 C         2.516520         2.193184        -0.949571
 C         1.286293         0.419930         0.398434
 O         0.263707         0.479048         1.067834
 H         4.135508         3.926398        -2.537219
 H         0.918031         2.661215        -3.477088
 H         2.547401         2.985213        -4.424506
 H         3.590154         0.767194        -3.861517
 H         1.205803        -0.232464        -2.734753
 H         2.625462        -0.373636        -1.520240
 H         0.438730         1.438045        -1.254688
 H         2.344437         3.169226        -0.537741
 H         3.538028         1.871410        -0.651898
 H         2.275864        -0.185337         0.760198
