19
Iteration:  1207charge 0 multiplicity 1
 O         4.338546         2.825105        -2.584558
 C         3.007318         2.420431        -2.325470
 C         1.978281         2.620247        -3.530377
 C         2.597631         1.205450        -3.086360
 C         1.804267         0.362418        -2.263687
 C         1.454864         1.142976        -0.933778
 C         2.484025         2.308199        -0.902316
 C         1.415737         0.348846         0.334841
 O         0.410561         0.250675         0.969742
 H         4.454473         3.587310        -2.008902
 H         0.975521         2.736795        -3.283883
 H         2.347167         3.114758        -4.453303
 H         3.194930         0.705029        -3.820877
 H         0.933672        -0.059882        -2.729415
 H         2.323852        -0.620752        -1.935500
 H         0.494744         1.557423        -0.898894
 H         2.223592         3.270475        -0.517112
 H         3.365638         1.777786        -0.426962
 H         2.311526        -0.179906         0.725654
