19
Iteration:  2590charge 0 multiplicity 1
 O         4.386798         2.990032        -2.553306
 C         3.068252         2.326124        -2.389196
 C         1.951380         2.439182        -3.382628
 C         2.582470         1.080773        -3.050400
 C         1.866042         0.268803        -2.028099
 C         1.357408         1.170444        -1.039173
 C         2.618575         2.262567        -1.022036
 C         1.320215         0.460239         0.239944
 O         0.380103         0.379420         0.933770
 H         4.097141         3.939607        -2.592005
 H         0.973226         2.749284        -2.955787
 H         2.275499         2.866095        -4.296484
 H         3.267755         0.693083        -3.843366
 H         0.939472        -0.255892        -2.457476
 H         2.486052        -0.591665        -1.532924
 H         0.414966         1.611112        -1.398108
 H         2.038112         3.147042        -0.689501
 H         3.313665         2.039574        -0.290363
 H         2.272007        -0.199134         0.357987
