19
Iteration:  2605charge 0 multiplicity 1
 O         4.323081         2.938132        -2.575048
 C         3.101971         2.348936        -2.371689
 C         2.038979         2.521544        -3.437988
 C         2.560390         1.111893        -3.141421
 C         1.910893         0.185411        -2.140344
 C         1.441458         1.231578        -0.992519
 C         2.491256         2.252633        -0.948132
 C         1.311536         0.506356         0.356218
 O         0.317748         0.315568         0.978673
 H         4.241942         3.859160        -2.847063
 H         1.042811         2.780535        -3.166621
 H         2.389312         2.883054        -4.438693
 H         3.068957         0.583604        -3.956817
 H         1.060308        -0.534223        -2.556922
 H         2.760947        -0.470397        -1.776885
 H         0.419857         1.644262        -1.138399
 H         2.257366         3.248749        -0.597074
 H         3.394417         1.860196        -0.316061
 H         2.345206         0.191520         0.779960
