19
Iteration:  4694charge 0 multiplicity 1
 O         4.351667         2.983815        -2.586657
 C         3.028329         2.430943        -2.384055
 C         1.982609         2.437973        -3.665310
 C         2.565715         1.113429        -3.119739
 C         2.006825         0.158048        -2.127374
 C         1.512115         1.135842        -0.915464
 C         2.556694         2.274598        -0.940002
 C         1.266737         0.460116         0.405270
 O         0.230800         0.410271         1.049799
 H         4.321950         3.890671        -2.242456
 H         0.871593         2.494730        -3.298463
 H         2.326003         2.797694        -4.694239
 H         3.276416         0.760480        -4.017581
 H         1.184745        -0.486465        -2.552741
 H         2.858729        -0.341023        -1.665481
 H         0.518051         1.509102        -1.258438
 H         2.181108         3.256723        -0.709407
 H         3.464672         1.949061        -0.359076
 H         2.159039        -0.256459         0.682235
