19
Iteration:  3407
 O         4.385969         2.825564        -2.547915
 C         3.027521         2.354606        -2.313761
 C         1.966810         2.381456        -3.358989
 C         2.629938         1.099191        -3.106092
 C         1.851075         0.245809        -2.111738
 C         1.388384         1.452391        -1.001641
 C         2.491104         2.405984        -1.005965
 C         1.352572         0.636258         0.314689
 O         0.417822         0.072365         0.857852
 H         4.238840         3.761590        -2.681158
 H         0.927859         2.438080        -3.073951
 H         2.189869         2.837684        -4.370282
 H         3.338830         0.604545        -3.790494
 H         0.970294        -0.279498        -2.573150
 H         2.337281        -0.481149        -1.473611
 H         0.417356         1.757973        -1.262900
 H         2.187807         3.392688        -0.937324
 H         3.208046         2.163537        -0.231249
 H         2.354629         0.525181         0.765912
