19
Iteration:  2741charge 0 multiplicity 1
 O         4.382491         2.879077        -2.581869
 C         3.070332         2.328910        -2.378375
 C         2.145197         2.518978        -3.653301
 C         2.579137         1.153246        -3.142630
 C         1.630913         0.284314        -2.129082
 C         1.508314         1.279823        -0.852895
 C         2.482483         2.423631        -0.994965
 C         1.316244         0.601109         0.608265
 O         0.358057        -0.043547         0.907544
 H         4.472540         3.717735        -3.095062
 H         1.077623         2.708974        -3.903349
 H         2.788669         2.756832        -4.589323
 H         3.404214         0.559597        -3.710371
 H         0.680081         0.047345        -2.444629
 H         2.179204        -0.607606        -1.835397
 H         0.588150         1.877054        -0.919975
 H         2.012854         3.428615        -0.776844
 H         3.448894         2.387605        -0.355403
 H         2.221986         0.664352         1.269580
