19
Iteration:  4413charge 0 multiplicity 1
 O         4.301691         2.915307        -2.510286
 C         2.941573         2.425758        -2.438782
 C         2.038537         2.438318        -3.582400
 C         2.703298         1.112775        -3.053753
 C         1.890173         0.253582        -2.148391
 C         1.435035         1.158528        -0.943059
 C         2.497989         2.297796        -1.014974
 C         1.318927         0.365862         0.320266
 O         0.343904         0.398443         1.060634
 H         4.412466         3.894881        -2.452782
 H         1.047303         2.695521        -3.497148
 H         2.393183         2.872278        -4.529209
 H         3.433122         0.685891        -3.624563
 H         1.069428        -0.163578        -2.705825
 H         2.533158        -0.516159        -1.746250
 H         0.500743         1.748021        -1.104446
 H         2.178864         3.315394        -0.591090
 H         3.430178         2.055862        -0.491243
 H         2.275857        -0.234937         0.606066
