19
Iteration:  4746
 O         4.305620         3.058790        -2.567814
 C         3.047710         2.324683        -2.327131
 C         1.972087         2.355366        -3.474581
 C         2.706416         1.042726        -3.087997
 C         1.904685         0.191800        -2.178298
 C         1.427004         1.075758        -1.082940
 C         2.469298         2.264081        -0.815613
 C         1.302709         0.449087         0.239474
 O         0.400414         0.548980         1.024321
 H         4.124811         3.989259        -2.711288
 H         0.881113         2.484408        -3.078119
 H         2.436953         2.777582        -4.406763
 H         3.400948         0.760697        -3.962359
 H         1.081075        -0.138295        -2.848466
 H         2.293107        -0.666065        -1.581975
 H         0.488003         1.530046        -1.424878
 H         1.979987         3.212987        -0.610763
 H         3.360930         1.890427        -0.156333
 H         2.215851         0.005154         0.537179
