19
Iteration:  1334
 O         4.358144         3.017141        -2.555850
 C         3.084947         2.410880        -2.347309
 C         2.041281         2.599187        -3.372879
 C         2.565365         1.172456        -3.142393
 C         1.807915         0.281761        -2.238120
 C         1.275152         1.156362        -1.047978
 C         2.472296         2.182412        -0.948991
 C         1.345166         0.417657         0.219532
 O         0.491675         0.248488         1.143430
 H         4.962967         2.265480        -2.733066
 H         1.156551         2.982727        -2.982608
 H         2.288649         3.175769        -4.278529
 H         2.887814         0.843302        -4.174021
 H         0.936669        -0.243134        -2.675798
 H         2.537263        -0.373410        -1.932881
 H         0.426469         1.794182        -1.383718
 H         2.169403         3.111577        -0.458653
 H         3.184520         1.804302        -0.252143
 H         2.263610        -0.246832         0.347057
