19
Iteration:  3612charge 0 multiplicity 1
 O         4.401727         2.948630        -2.587240
 C         3.087850         2.394255        -2.385807
 C         1.935977         2.413065        -3.347351
 C         2.621190         1.061903        -3.045292
 C         1.895926         0.196515        -2.145863
 C         1.369561         1.231830        -1.086721
 C         2.443783         2.351137        -0.930057
 C         1.380616         0.487635         0.275988
 O         0.381312         0.360931         0.924631
 H         4.519128         3.870770        -2.219230
 H         0.884380         2.390936        -3.095312
 H         1.977639         2.563806        -4.402617
 H         3.256633         0.577227        -3.699835
 H         1.114609        -0.328764        -2.713914
 H         2.545050        -0.579270        -1.611199
 H         0.225223         1.557424        -1.193576
 H         2.128904         3.348249        -0.475982
 H         3.221660         2.063884        -0.241755
 H         2.299335        -0.042211         0.561864
