19
Iteration:  2599
 O         4.329947         2.951708        -2.565368
 C         3.116088         2.354374        -2.408794
 C         2.052525         2.471012        -3.385481
 C         2.546872         1.130394        -3.100695
 C         1.887430         0.186459        -2.093177
 C         1.408603         1.232338        -0.953044
 C         2.516085         2.220538        -0.996324
 C         1.345634         0.503630         0.278044
 O         0.319138         0.335759         0.972998
 H         4.177711         3.905937        -2.780686
 H         0.962813         2.722012        -3.172314
 H         2.324726         2.915692        -4.319373
 H         3.050170         0.557350        -3.858430
 H         1.156639        -0.365952        -2.534853
 H         2.764231        -0.422706        -1.924772
 H         0.471252         1.655256        -1.315147
 H         2.132406         3.205686        -0.623843
 H         3.275943         1.925303        -0.305601
 H         2.334548         0.122157         0.561403
