19
Iteration:  2317charge 0 multiplicity 1
 O         4.284212         2.819715        -2.479757
 C         2.914635         2.509974        -2.419578
 C         2.120943         2.443532        -3.686697
 C         2.583518         1.102991        -3.209921
 C         1.878417         0.256032        -2.166901
 C         1.411479         1.270061        -0.955429
 C         2.503643         2.366756        -0.973372
 C         1.379495         0.383876         0.382288
 O         0.393933         0.286721         1.099487
 H         4.335239         3.529742        -1.798615
 H         1.181923         2.976286        -3.797163
 H         2.809423         2.958530        -4.411029
 H         3.289784         0.502758        -3.784207
 H         0.956250        -0.334875        -2.590272
 H         2.554557        -0.407008        -1.715778
 H         0.378094         1.606544        -0.995932
 H         1.811767         3.204353        -0.585210
 H         3.378788         2.235348        -0.217110
 H         2.459836         0.028574         0.665579
