19
Iteration:  4646
 O         4.362120         2.922411        -2.694015
 C         3.024346         2.418612        -2.291790
 C         1.971156         2.346933        -3.381002
 C         2.652538         1.054434        -3.052245
 C         1.898578         0.216772        -2.121088
 C         1.426467         1.218438        -1.006990
 C         2.520901         2.341599        -0.930143
 C         1.341365         0.553207         0.318778
 O         0.309053         0.313754         0.892528
 H         4.309807         3.858692        -2.958601
 H         0.954043         2.526568        -3.123191
 H         2.347610         2.848034        -4.286914
 H         3.433929         0.742846        -3.663998
 H         1.018650        -0.281564        -2.446748
 H         2.599944        -0.404454        -1.611585
 H         0.425237         1.586104        -1.280355
 H         1.945405         3.217855        -0.478123
 H         3.281387         1.989124        -0.157176
 H         2.435261         0.341172         0.728930
