19
Iteration:  2213charge 0 multiplicity 1
 O         4.289442         3.045808        -2.539237
 C         2.943196         2.503034        -2.460343
 C         1.923588         2.375534        -3.602384
 C         2.622721         1.130155        -3.007442
 C         1.843436         0.260691        -2.095753
 C         1.558013         1.226214        -0.848524
 C         2.744782         2.235308        -0.903179
 C         1.329552         0.424845         0.375757
 O         0.195549         0.274931         0.890017
 H         4.566083         2.819126        -3.471981
 H         0.985966         2.830452        -3.548470
 H         2.604494         2.786253        -4.424954
 H         3.341931         0.800275        -3.740694
 H         1.139048        -0.286660        -2.590886
 H         2.549557        -0.487114        -1.852324
 H         0.566519         1.653307        -1.076758
 H         2.449744         3.118084        -0.341220
 H         3.797695         1.820381        -0.639527
 H         2.157246        -0.041149         0.914216
