19
Iteration:  3565
 O         4.342729         2.893319        -2.557298
 C         3.009349         2.507125        -2.465752
 C         2.104665         2.435778        -3.686476
 C         2.610574         1.176345        -3.140339
 C         1.855630         0.217895        -2.132993
 C         1.434799         1.184463        -0.851859
 C         2.514365         2.388604        -0.950480
 C         1.324444         0.453712         0.471586
 O         0.266990         0.167599         1.042549
 H         4.349751         3.751245        -2.950922
 H         1.149653         2.947056        -3.645233
 H         2.719958         2.865093        -4.497608
 H         3.419889         0.737251        -3.862360
 H         0.957324        -0.286881        -2.536378
 H         2.603649        -0.549670        -1.788195
 H         0.394798         1.566319        -1.246708
 H         2.224244         3.202136        -0.302596
 H         3.418943         2.048979        -0.547899
 H         2.268406         0.375424         1.026147
