19
Iteration:  1222charge 0 multiplicity 1
 O         4.403866         2.895649        -2.603655
 C         3.059916         2.449071        -2.394161
 C         2.061698         2.571691        -3.412150
 C         2.607000         1.228212        -3.192775
 C         1.718884         0.288350        -2.156896
 C         1.307326         1.181264        -0.987375
 C         2.481720         2.218918        -0.912002
 C         1.404859         0.360251         0.302218
 O         0.420683         0.215269         1.049331
 H         4.588149         3.890162        -2.578828
 H         0.972543         2.852589        -3.145245
 H         2.413536         3.033651        -4.328681
 H         3.425956         0.903114        -3.843702
 H         0.824137        -0.107324        -2.671285
 H         2.388869        -0.547876        -1.922359
 H         0.236513         1.588339        -1.228424
 H         2.026976         3.076102        -0.295788
 H         3.320710         1.911848        -0.243649
 H         2.430415         0.051097         0.496596
