19
Iteration:  2861
 O         4.362517         2.915589        -2.632864
 C         3.085988         2.418747        -2.432401
 C         2.136713         2.402954        -3.623963
 C         2.625134         1.113998        -3.060125
 C         1.723039         0.327662        -2.058919
 C         1.425674         1.360707        -0.764659
 C         2.583816         2.469765        -0.986203
 C         1.286155         0.501043         0.447092
 O         0.289106        -0.048034         0.896928
 H         4.374410         3.451377        -3.437744
 H         1.107465         2.840380        -3.462702
 H         2.519826         2.927384        -4.505020
 H         3.273398         0.577240        -3.758422
 H         0.853865        -0.091260        -2.548584
 H         2.329337        -0.503339        -1.599021
 H         0.444081         1.785937        -0.762998
 H         2.114065         3.372573        -0.725440
 H         3.407854         2.323512        -0.305329
 H         2.265901         0.290404         0.962124
