19
Iteration:  4582charge 0 multiplicity 1
 O         4.350874         2.924535        -2.607243
 C         2.987747         2.409935        -2.396560
 C         2.078986         2.351951        -3.663894
 C         2.578684         1.074308        -3.028134
 C         1.812908         0.253850        -2.049863
 C         1.480786         1.294131        -0.891644
 C         2.525863         2.378908        -0.882268
 C         1.325747         0.604121         0.363127
 O         0.339766         0.139873         0.910694
 H         4.127106         3.895688        -2.666234
 H         1.106077         2.795487        -3.526376
 H         2.672482         2.550813        -4.617208
 H         3.362810         0.563710        -3.533144
 H         0.870808        -0.123495        -2.462668
 H         2.392950        -0.572266        -1.724222
 H         0.495173         1.724048        -1.145459
 H         2.189378         3.315085        -0.846178
 H         3.426665         2.224116        -0.291949
 H         2.330643         0.189233         0.879935
