19
Iteration:  3410
 O         4.385176         2.827500        -2.536936
 C         3.052607         2.334383        -2.326342
 C         1.968447         2.385889        -3.349766
 C         2.622283         1.093192        -3.093930
 C         1.843351         0.243373        -2.123922
 C         1.400265         1.397782        -1.009807
 C         2.496766         2.440838        -1.016179
 C         1.311670         0.682883         0.321673
 O         0.439223         0.059385         0.865723
 H         4.203396         3.812819        -2.682788
 H         0.885902         2.552850        -3.100427
 H         2.221522         2.758043        -4.414088
 H         3.202823         0.627729        -3.812184
 H         0.986300        -0.220827        -2.636757
 H         2.433613        -0.482493        -1.503016
 H         0.372143         1.832518        -1.304880
 H         2.118954         3.438431        -0.814750
 H         3.221968         2.130389        -0.280121
 H         2.340269         0.414961         0.797646
