19
Iteration:  2285
 O         4.364385         2.886652        -2.592002
 C         3.032725         2.462976        -2.384617
 C         1.989736         2.445247        -3.489815
 C         2.645410         1.111729        -3.069849
 C         1.882579         0.240244        -2.142109
 C         1.328039         1.194055        -1.018080
 C         2.437584         2.274605        -0.994651
 C         1.394151         0.523162         0.356167
 O         0.391238         0.289204         0.972460
 H         4.608936         3.556004        -1.923210
 H         0.986878         2.782573        -3.221582
 H         2.414496         2.915312        -4.393408
 H         3.323758         0.628949        -3.772244
 H         1.005184        -0.374688        -2.639058
 H         2.523554        -0.570696        -1.653805
 H         0.307220         1.630823        -0.987657
 H         2.050994         3.275181        -0.653441
 H         3.318012         1.961779        -0.387508
 H         2.362760         0.360713         0.784384
