19
Iteration:  1491
 O         4.353646         2.892354        -2.603041
 C         3.118390         2.410570        -2.365294
 C         2.045183         2.687327        -3.341926
 C         2.478059         1.285758        -3.236592
 C         1.806455         0.280711        -2.241749
 C         1.496594         1.055514        -0.913341
 C         2.587448         2.283384        -1.001962
 C         1.362577         0.278726         0.406361
 O         0.291586         0.228073         1.069669
 H         4.335368         3.527451        -3.311145
 H         1.004647         2.960259        -2.990779
 H         2.446028         3.279943        -4.306083
 H         3.015473         0.976951        -4.171179
 H         0.863349         0.003991        -2.816306
 H         2.335431        -0.581860        -2.110122
 H         0.569767         1.541150        -1.055821
 H         2.184417         3.125653        -0.446095
 H         3.364465         2.027565        -0.335311
 H         2.336837        -0.172462         0.750184
