19
Iteration:   818
 O         4.406042         2.955448        -2.521111
 C         3.133300         2.294929        -2.379458
 C         2.032457         2.661363        -3.488077
 C         2.490666         1.139314        -3.151752
 C         1.739269         0.307208        -2.174646
 C         1.468129         1.182499        -0.935805
 C         2.495595         2.262298        -0.924660
 C         1.393970         0.335043         0.270258
 O         0.401507         0.248888         1.024008
 H         4.094469         3.865967        -2.763177
 H         0.998782         2.828572        -3.224077
 H         2.339607         3.027856        -4.485779
 H         2.804803         0.721923        -4.141071
 H         0.751380        -0.114184        -2.607874
 H         2.420434        -0.521088        -1.828661
 H         0.384432         1.567053        -1.048545
 H         2.069053         3.285472        -0.602576
 H         3.417793         2.155762        -0.196983
 H         2.282478        -0.276897         0.598477
