19
Iteration:  4039
 O         4.348075         2.965959        -2.616772
 C         3.075939         2.333453        -2.392231
 C         1.927667         2.317222        -3.356344
 C         2.606082         1.034424        -3.068680
 C         1.928880         0.196356        -2.076046
 C         1.377079         1.369293        -0.961441
 C         2.565181         2.376004        -0.990172
 C         1.374890         0.586221         0.302875
 O         0.317547         0.199946         0.811905
 H         4.340573         3.735715        -2.061277
 H         1.014714         2.803102        -3.060739
 H         2.387036         2.689988        -4.315385
 H         3.168592         0.709208        -3.849753
 H         0.981961        -0.278757        -2.241899
 H         2.560197        -0.514834        -1.442267
 H         0.374884         1.678028        -1.228321
 H         2.125197         3.378870        -0.679178
 H         3.267462         2.197012        -0.154781
 H         2.376081         0.390852         0.733691
