19
Iteration:  2860
 O         4.365472         2.912497        -2.633320
 C         3.082600         2.420032        -2.429056
 C         2.136481         2.399579        -3.626922
 C         2.622115         1.119606        -3.058486
 C         1.730135         0.324338        -2.062148
 C         1.418855         1.364501        -0.764654
 C         2.586456         2.473644        -0.990268
 C         1.286447         0.491626         0.463383
 O         0.288597        -0.049259         0.893475
 H         4.360433         3.453786        -3.420931
 H         1.122359         2.879774        -3.471993
 H         2.528943         2.958037        -4.515343
 H         3.260818         0.532045        -3.777583
 H         0.812975        -0.083057        -2.578812
 H         2.351613        -0.497203        -1.559950
 H         0.446014         1.791803        -0.763753
 H         2.117189         3.372541        -0.762771
 H         3.424670         2.379160        -0.322323
 H         2.267229         0.274321         0.960979
