19
Iteration:  3581
 O         4.304334         2.898352        -2.570654
 C         2.991882         2.345099        -2.377968
 C         2.100094         2.581277        -3.599239
 C         2.581987         1.104964        -3.127223
 C         1.925909         0.258183        -2.127477
 C         1.486784         1.213032        -0.992114
 C         2.508263         2.342123        -0.936844
 C         1.324002         0.514153         0.421497
 O         0.280857         0.204076         1.032815
 H         4.273403         3.842643        -2.707468
 H         0.994314         2.593217        -3.568914
 H         2.543734         2.651488        -4.580373
 H         3.286271         0.549037        -3.633990
 H         1.047888        -0.251260        -2.559176
 H         2.690619        -0.459051        -1.792733
 H         0.500987         1.620355        -1.075793
 H         2.062894         3.369316        -0.855547
 H         3.432372         2.140722        -0.259100
 H         2.287793         0.002238         0.845964
