19
Iteration:  4022charge 0 multiplicity 1
 O         4.323592         3.021769        -2.671106
 C         3.150556         2.268694        -2.373738
 C         1.970480         2.440850        -3.422682
 C         2.647857         1.031226        -3.133733
 C         1.852626         0.246478        -1.987117
 C         1.448866         1.250599        -0.979226
 C         2.531630         2.339404        -0.939339
 C         1.304822         0.644874         0.340252
 O         0.298094         0.175510         0.856921
 H         4.388751         3.766145        -2.103150
 H         1.008203         2.195516        -3.029204
 H         2.164260         2.972421        -4.331379
 H         3.181275         0.314235        -3.906225
 H         1.058267        -0.284642        -2.534532
 H         2.572350        -0.429644        -1.638906
 H         0.526119         1.836036        -1.283528
 H         2.195046         3.343587        -0.636316
 H         3.270871         2.047388        -0.130735
 H         2.319811         0.421058         0.888396
