19
Iteration:  1459
 O         4.341103         2.861725        -2.603356
 C         3.046785         2.442755        -2.321121
 C         1.912743         2.568552        -3.388753
 C         2.504305         1.261862        -3.132906
 C         1.787714         0.304008        -2.137633
 C         1.480687         1.156412        -0.955427
 C         2.655014         2.223805        -0.894300
 C         1.349181         0.293317         0.227051
 O         0.429578         0.318404         0.929315
 H         4.524232         3.781953        -2.238475
 H         0.834742         2.811927        -3.140021
 H         2.241166         3.196954        -4.327458
 H         3.085232         0.835373        -3.980494
 H         0.884846        -0.038707        -2.689471
 H         2.322439        -0.557024        -1.912346
 H         0.523881         1.657397        -1.076656
 H         2.217226         3.040091        -0.309589
 H         3.503161         1.752103        -0.454655
 H         2.213583        -0.366357         0.480092
