19
Iteration:  1527charge 0 multiplicity 1
 O         4.362742         2.882786        -2.431278
 C         3.033938         2.474450        -2.381014
 C         1.953099         2.591247        -3.380046
 C         2.469266         1.268155        -3.137216
 C         1.767128         0.269538        -2.201588
 C         1.373103         1.268389        -0.982475
 C         2.637442         2.165671        -0.934160
 C         1.434240         0.476278         0.257378
 O         0.430854         0.160827         0.939896
 H         4.661117         2.893885        -3.350535
 H         0.925464         2.833562        -3.051640
 H         2.217846         2.997103        -4.395055
 H         2.961956         0.785202        -3.993516
 H         0.792015        -0.133094        -2.428736
 H         2.391241        -0.574719        -1.916130
 H         0.348755         1.750284        -1.039333
 H         2.595358         3.109187        -0.332719
 H         3.460273         1.457167        -0.703780
 H         2.445578         0.027971         0.522245
