19
Iteration:  1137
 O         4.334309         2.894565        -2.673239
 C         3.062553         2.402114        -2.304275
 C         1.989156         2.601505        -3.347564
 C         2.635508         1.233543        -3.180864
 C         1.847979         0.236665        -2.220623
 C         1.446021         1.245929        -1.050502
 C         2.615371         2.243755        -0.855096
 C         1.276063         0.454805         0.329783
 O         0.335583         0.162714         1.027588
 H         4.152909         3.830071        -2.658461
 H         0.956069         2.749374        -2.934528
 H         2.199285         3.287676        -4.177738
 H         3.099961         0.630090        -3.963566
 H         0.873212        -0.293578        -2.590568
 H         2.450532        -0.565956        -1.900441
 H         0.494716         1.610277        -1.499103
 H         2.412851         3.095573        -0.190543
 H         3.421769         1.662918        -0.509624
 H         2.265860         0.060110         0.635299
