19
Iteration:   866
 O         4.374984         2.738428        -2.600444
 C         3.006174         2.490780        -2.319476
 C         2.034096         2.567641        -3.525716
 C         2.520837         1.244984        -3.081479
 C         1.753176         0.376437        -2.172736
 C         1.351264         1.203514        -0.949814
 C         2.483703         2.249626        -0.877613
 C         1.399183         0.455044         0.295753
 O         0.492483         0.139473         0.957726
 H         4.694546         3.632845        -2.625662
 H         1.003080         2.931159        -3.232408
 H         2.441678         2.926521        -4.504791
 H         3.349648         0.946395        -3.641694
 H         0.919739        -0.032188        -2.684088
 H         2.459490        -0.426001        -1.877015
 H         0.367131         1.688215        -1.194895
 H         2.092024         3.173202        -0.407255
 H         3.253520         1.918910        -0.187495
 H         2.473527         0.132552         0.542586
