19
Iteration:  2988charge 0 multiplicity 1
 O         4.296335         3.006686        -2.437797
 C         3.057318         2.391623        -2.379485
 C         1.897703         2.407262        -3.424578
 C         2.676828         1.107710        -3.112300
 C         1.977659         0.168131        -2.160844
 C         1.403798         1.116241        -1.066823
 C         2.501662         2.242829        -0.946389
 C         1.282771         0.410860         0.213952
 O         0.394316         0.524745         1.006880
 H         4.536436         3.482635        -3.267711
 H         0.954253         2.690030        -2.865038
 H         2.167944         3.189553        -4.161691
 H         3.278502         0.734727        -3.964998
 H         1.148941        -0.544101        -2.504519
 H         2.741844        -0.433595        -1.667192
 H         0.418565         1.525442        -1.391547
 H         2.118797         3.194191        -0.462466
 H         3.432475         1.866179        -0.324873
 H         2.092542        -0.329118         0.359355
