19
Iteration:  4585
 O         4.344800         2.942689        -2.598765
 C         3.009705         2.404760        -2.394021
 C         2.099288         2.362988        -3.704297
 C         2.568563         1.058512        -3.046112
 C         1.814056         0.281918        -2.046557
 C         1.472117         1.276603        -0.877308
 C         2.560497         2.375018        -0.890629
 C         1.326806         0.594558         0.378410
 O         0.327170         0.140977         0.915970
 H         4.155038         3.887975        -2.682722
 H         1.021718         2.784104        -3.634929
 H         2.607672         2.573017        -4.640335
 H         3.242025         0.568918        -3.649084
 H         0.848045        -0.212560        -2.383567
 H         2.372727        -0.618147        -1.618713
 H         0.475530         1.603455        -1.164144
 H         2.094271         3.389201        -0.668367
 H         3.426950         2.252725        -0.254554
 H         2.307807         0.181161         0.917283
