19
Iteration:  3585charge 0 multiplicity 1
 O         4.288574         2.891177        -2.569334
 C         3.050343         2.320714        -2.400731
 C         2.073508         2.564634        -3.562537
 C         2.591082         1.133857        -3.119105
 C         1.909512         0.256348        -2.091180
 C         1.472765         1.217806        -0.987524
 C         2.499568         2.325074        -0.960922
 C         1.332718         0.505998         0.410131
 O         0.300186         0.227074         1.009661
 H         4.218596         3.874222        -2.641452
 H         0.940659         2.574165        -3.513579
 H         2.573973         2.830118        -4.525667
 H         3.388186         0.508922        -3.678392
 H         1.067817        -0.259679        -2.583904
 H         2.657619        -0.434349        -1.725213
 H         0.496066         1.642827        -1.219029
 H         1.970978         3.247262        -0.799977
 H         3.376219         2.225756        -0.252176
 H         2.247502         0.008228         0.771119
