19
Iteration:  1560
 O         4.310167         2.912076        -2.468308
 C         3.065872         2.371471        -2.324062
 C         2.017548         2.544476        -3.422347
 C         2.467569         1.173493        -3.176336
 C         1.629117         0.358774        -2.194335
 C         1.469411         1.340607        -0.835322
 C         2.666615         2.304341        -0.930232
 C         1.460594         0.396386         0.269293
 O         0.427568         0.104263         0.868389
 H         4.692724         2.913570        -3.329636
 H         0.958582         2.709538        -3.110056
 H         2.224769         3.006864        -4.394867
 H         2.975161         0.721981        -4.019483
 H         0.582767         0.175189        -2.479734
 H         2.138607        -0.571147        -2.076744
 H         0.399526         1.734454        -0.935765
 H         2.567515         3.381554        -0.573355
 H         3.529586         2.014807        -0.256018
 H         2.324075        -0.219211         0.472185
