19
Iteration:  1083
 O         4.335687         3.059575        -2.455920
 C         3.085069         2.334672        -2.427307
 C         1.961660         2.559486        -3.387326
 C         2.388525         1.154306        -3.171138
 C         1.801058         0.227609        -2.208285
 C         1.534879         1.287338        -0.803559
 C         2.735739         2.253200        -0.940941
 C         1.388305         0.334526         0.309688
 O         0.276020         0.216147         0.878336
 H         4.323228         3.422324        -3.365000
 H         1.003560         3.066769        -3.152270
 H         2.350401         2.663256        -4.456409
 H         2.984648         0.559420        -3.909306
 H         0.811286        -0.297609        -2.644098
 H         2.549696        -0.569353        -1.928740
 H         0.580006         1.867569        -0.994811
 H         2.387536         3.286464        -0.638617
 H         3.703171         2.112345        -0.388690
 H         2.288094        -0.328320         0.604939
