19
Iteration:  4702
 O         4.326856         2.978776        -2.574963
 C         3.005430         2.382546        -2.446675
 C         1.958019         2.474012        -3.669348
 C         2.678789         1.139169        -3.140844
 C         2.018156         0.204283        -2.111029
 C         1.461389         1.145760        -0.927646
 C         2.564605         2.264550        -0.958743
 C         1.271061         0.376880         0.408375
 O         0.233093         0.446450         1.069345
 H         4.286222         3.904854        -2.334256
 H         0.841755         2.723129        -3.447137
 H         2.383910         2.698860        -4.628264
 H         3.317954         0.607742        -3.807619
 H         1.219092        -0.476861        -2.355742
 H         2.825290        -0.435784        -1.879443
 H         0.492875         1.612591        -1.166285
 H         2.114829         3.076682        -0.394877
 H         3.365096         1.760678        -0.337999
 H         2.214855        -0.108689         0.922605
