19
Iteration:  2086
 O         4.386748         2.908652        -2.577721
 C         3.064483         2.391292        -2.345004
 C         2.099683         2.496499        -3.458816
 C         2.552211         1.113675        -3.071904
 C         1.739990         0.304811        -2.129912
 C         1.371969         1.214785        -0.947131
 C         2.449825         2.312445        -0.970669
 C         1.382903         0.459108         0.301870
 O         0.414240         0.193982         0.954767
 H         4.366806         3.842447        -2.909410
 H         1.170018         2.832652        -3.116575
 H         2.383558         3.000341        -4.399807
 H         3.237085         0.689098        -3.747562
 H         0.847642        -0.138677        -2.653850
 H         2.511001        -0.446903        -1.789163
 H         0.392047         1.525700        -1.252955
 H         2.247668         3.373446        -0.719079
 H         3.237280         2.000099        -0.341741
 H         2.374412         0.166295         0.690327
