19
Iteration:  1059charge 0 multiplicity 1
 O         4.300120         2.985571        -2.552745
 C         3.094828         2.384604        -2.415505
 C         1.988342         2.559846        -3.375419
 C         2.551548         1.211709        -3.189094
 C         1.793157         0.312950        -2.079169
 C         1.448342         1.289820        -0.950356
 C         2.673708         2.199719        -0.937206
 C         1.324439         0.443804         0.339127
 O         0.336249         0.126085         0.920464
 H         4.476172         3.215985        -3.449260
 H         0.999682         2.703522        -2.919723
 H         2.198666         3.170038        -4.349080
 H         3.263953         0.685092        -3.746476
 H         0.737784        -0.107067        -2.505429
 H         2.419147        -0.491106        -1.766583
 H         0.418735         1.667115        -1.283966
 H         2.625762         3.119124        -0.256128
 H         3.403961         1.554205        -0.504682
 H         2.294994        -0.124500         0.523413
