19
Iteration:   131
 O         4.267137         3.074318        -2.425881
 C         3.028713         2.401167        -2.338286
 C         2.164122         2.344921        -3.605817
 C         2.683053         1.051525        -2.966676
 C         1.685874         0.248174        -2.229969
 C         1.172506         1.284049        -1.129334
 C         2.284630         2.337406        -0.995224
 C         1.339819         0.314134         0.126448
 O         0.791475         0.352439         1.200796
 H         4.583815         3.211451        -1.512424
 H         1.194740         2.689106        -3.666891
 H         2.829318         2.586146        -4.449245
 H         3.501044         0.640409        -3.589284
 H         0.951864         0.103620        -2.994927
 H         1.961027        -0.677546        -1.755308
 H         0.210999         1.874112        -1.336522
 H         1.825587         3.290638        -0.784859
 H         3.044559         2.046727        -0.262198
 H         2.177973        -0.356374        -0.039602
