19
Iteration:  2552charge 0 multiplicity 1
 O         4.257172         2.909646        -2.623270
 C         2.981956         2.396362        -2.342437
 C         1.998995         2.440886        -3.560535
 C         2.773997         1.156751        -3.131210
 C         1.859316         0.293276        -2.205017
 C         1.488197         1.115042        -1.040809
 C         2.539920         2.231916        -0.889407
 C         1.278291         0.378125         0.380964
 O         0.328221         0.440421         1.102060
 H         4.365494         3.833126        -2.370982
 H         0.945622         2.616291        -3.581515
 H         2.463801         3.044946        -4.393827
 H         3.675342         0.729436        -3.588819
 H         0.976319         0.058326        -2.710524
 H         2.302921        -0.598450        -1.890776
 H         0.507912         1.594955        -1.044680
 H         2.196623         3.208756        -0.588569
 H         3.530683         2.061729        -0.351163
 H         2.131521        -0.292687         0.654634
