19
Iteration:   217
 O         4.258643         2.874437        -2.188119
 C         3.012404         2.244075        -2.379909
 C         2.076363         2.622025        -3.527465
 C         2.602252         1.222959        -3.194567
 C         1.842570         0.206604        -2.213796
 C         1.213078         1.016386        -1.161412
 C         2.263463         2.257953        -1.021374
 C         1.449690         0.498599         0.189641
 O         0.704153         0.469410         1.157287
 H         4.672399         3.086221        -3.079547
 H         1.100256         2.855037        -3.388519
 H         2.551317         2.941677        -4.409517
 H         3.143768         0.664886        -3.964557
 H         1.241899        -0.467545        -2.905621
 H         2.556023        -0.471801        -1.631375
 H         0.188503         1.520049        -1.328521
 H         1.682981         3.163577        -0.770839
 H         3.033453         2.370174        -0.193785
 H         2.426510         0.022691         0.223609
