19
Iteration:  2980
 O         4.312165         2.979216        -2.484623
 C         3.009727         2.351143        -2.330403
 C         1.949000         2.443514        -3.467971
 C         2.638782         1.181060        -3.178625
 C         2.002112         0.192100        -2.113292
 C         1.436805         1.130515        -1.100153
 C         2.513780         2.275618        -0.881649
 C         1.297330         0.372985         0.248831
 O         0.341241         0.504708         1.036513
 H         4.371180         3.312115        -3.404911
 H         0.944440         2.630242        -3.023603
 H         2.036345         3.018627        -4.369119
 H         3.304942         0.743284        -3.831802
 H         1.406943        -0.473978        -2.760460
 H         2.802524        -0.471653        -1.665045
 H         0.502987         1.534250        -1.334162
 H         2.100937         3.147320        -0.492555
 H         3.323995         1.888978        -0.198874
 H         2.093800        -0.417894         0.468766
