19
Iteration:     6charge 0 multiplicity 1
 O         4.301913         2.917610        -2.551002
 C         3.039508         2.405279        -2.373405
 C         1.979266         2.441227        -3.526949
 C         2.632898         1.141522        -3.072917
 C         1.923888         0.204373        -2.111796
 C         1.388695         1.194627        -0.999364
 C         2.483563         2.325524        -0.973513
 C         1.383791         0.463233         0.345553
 O         0.361108         0.348434         0.986826
 H         4.163087         3.884678        -2.682890
 H         0.871517         2.391400        -3.407301
 H         2.415969         3.019303        -4.372667
 H         3.344544         0.603300        -3.728668
 H         1.183395        -0.439638        -2.645001
 H         2.667254        -0.532841        -1.715024
 H         0.334353         1.466378        -1.228925
 H         2.145176         3.273010        -0.499549
 H         3.348305         2.062463        -0.312406
 H         2.451672        -0.085263         0.501873
