19
Iteration:  1552charge 0 multiplicity 1
 O         4.294101         2.894119        -2.410969
 C         3.046356         2.322249        -2.401104
 C         1.924958         2.608799        -3.435704
 C         2.517541         1.196995        -3.140614
 C         1.640468         0.349862        -2.172309
 C         1.488924         1.350624        -0.925828
 C         2.676297         2.265154        -0.888501
 C         1.445222         0.396261         0.243661
 O         0.454549         0.137236         0.852648
 H         4.700337         2.849253        -3.267538
 H         0.924410         2.731662        -3.124973
 H         2.174413         3.005457        -4.338049
 H         3.141197         0.673040        -3.829259
 H         0.630030         0.066706        -2.387676
 H         2.081307        -0.663536        -1.795281
 H         0.582487         2.022232        -0.781960
 H         2.328569         3.254684        -0.596497
 H         3.637446         1.830790        -0.441140
 H         2.460273        -0.145763         0.474298
