19
Iteration:  3056charge 0 multiplicity 1
 O         4.243173         3.000611        -2.451593
 C         2.917792         2.442657        -2.376232
 C         2.150439         2.477371        -3.709885
 C         2.790108         1.150117        -3.059228
 C         1.853453         0.182198        -2.323904
 C         1.372493         1.024435        -0.997188
 C         2.390706         2.181122        -0.962737
 C         1.280352         0.307190         0.303748
 O         0.480381         0.602560         1.242521
 H         4.163229         3.975122        -2.716755
 H         1.162055         2.826113        -3.502965
 H         2.713519         2.970187        -4.477026
 H         3.580029         0.694216        -3.573379
 H         0.932592        -0.155593        -2.843586
 H         2.512998        -0.698224        -2.326349
 H         0.369155         1.297158        -1.084127
 H         2.017328         3.032923        -0.460184
 H         3.314132         1.670968        -0.365083
 H         2.108173        -0.427560         0.543990
