19
Iteration:   890
 O         4.285135         2.811500        -2.450992
 C         2.980594         2.346836        -2.447227
 C         2.049552         2.675459        -3.591095
 C         2.511413         1.126791        -3.164502
 C         1.704574         0.347122        -2.088070
 C         1.406844         1.308076        -0.893176
 C         2.609244         2.346051        -0.960513
 C         1.454832         0.451847         0.337286
 O         0.456481         0.082295         0.931413
 H         4.402303         3.557242        -1.849526
 H         1.060241         2.949096        -3.467756
 H         2.538376         2.973513        -4.540182
 H         3.119745         0.588667        -3.935125
 H         0.842918        -0.048489        -2.519952
 H         2.360870        -0.454479        -1.762855
 H         0.524067         1.831037        -1.049790
 H         2.380984         3.273291        -0.540433
 H         3.431943         1.982839        -0.393129
 H         2.381322        -0.182108         0.391188
