19
Iteration:  3477
 O         4.385712         2.823332        -2.582370
 C         3.006120         2.447341        -2.433457
 C         2.058895         2.420938        -3.631172
 C         2.654846         1.160947        -3.039907
 C         1.752049         0.339891        -2.046834
 C         1.460598         1.316582        -0.904908
 C         2.485384         2.442863        -0.964610
 C         1.310674         0.514711         0.387586
 O         0.355409         0.024441         0.946753
 H         4.484912         3.764260        -2.580711
 H         0.926584         2.478699        -3.698107
 H         2.565908         2.692087        -4.544002
 H         3.550168         0.682300        -3.530112
 H         0.839819        -0.186251        -2.356599
 H         2.397489        -0.542202        -1.703264
 H         0.392522         1.812584        -1.175610
 H         1.967425         3.337503        -0.585701
 H         3.420393         2.342801        -0.460734
 H         2.368212         0.329735         0.735870
