19
Iteration:  4755
 O         4.297802         3.063629        -2.545517
 C         3.020130         2.332635        -2.298890
 C         2.032154         2.315028        -3.401365
 C         2.754553         1.065997        -3.089055
 C         1.891018         0.210754        -2.187090
 C         1.370414         1.107778        -1.074627
 C         2.481744         2.246232        -0.975716
 C         1.335510         0.432726         0.236917
 O         0.407716         0.569356         1.023485
 H         4.175253         4.007933        -2.666795
 H         0.966992         2.468372        -3.096841
 H         2.137686         2.824975        -4.320230
 H         3.227349         0.565966        -3.884408
 H         0.976864        -0.212092        -2.621549
 H         2.418380        -0.808701        -1.890456
 H         0.373863         1.533716        -1.199945
 H         1.991081         3.162532        -0.572891
 H         3.121322         2.043656        -0.087837
 H         2.219476        -0.231531         0.504161
