19
Iteration:  1546charge 0 multiplicity 1
 O         4.324358         2.891498        -2.380441
 C         2.997438         2.331106        -2.430909
 C         1.867608         2.630727        -3.422491
 C         2.526466         1.155950        -3.108286
 C         1.644532         0.375591        -2.122943
 C         1.505181         1.318515        -0.966502
 C         2.684668         2.230309        -0.917819
 C         1.479620         0.402185         0.203340
 O         0.436257         0.150436         0.872421
 H         4.672341         2.791149        -3.311067
 H         0.807491         2.883896        -3.099491
 H         2.248748         3.137617        -4.435783
 H         3.259732         0.615650        -3.778831
 H         0.688652         0.030346        -2.680887
 H         2.168396        -0.435664        -1.669271
 H         0.689189         1.987028        -0.974321
 H         2.341346         3.144696        -0.380154
 H         3.517364         1.791758        -0.440817
 H         2.485449         0.053033         0.422863
