19
Iteration:  3984
 O         4.303143         2.909696        -2.645152
 C         3.019479         2.500003        -2.438191
 C         2.035873         2.449515        -3.693263
 C         2.638172         1.165869        -3.053571
 C         1.914277         0.263331        -2.082601
 C         1.529178         1.215162        -0.848561
 C         2.615488         2.282338        -0.902190
 C         1.312708         0.488779         0.467187
 O         0.179310         0.197115         0.912246
 H         4.243765         3.835399        -2.995604
 H         0.883321         2.451051        -3.674580
 H         2.348368         2.890586        -4.633399
 H         3.478321         0.675971        -3.483374
 H         0.988442        -0.288693        -2.260859
 H         2.592502        -0.600012        -1.704229
 H         0.540186         1.616999        -1.052308
 H         2.093270         3.072074        -0.188590
 H         3.615543         1.841291        -0.471812
 H         2.224572         0.420984         1.131630
