19
Iteration:  2551charge 0 multiplicity 1
 O         4.254794         2.910884        -2.623829
 C         2.983765         2.394957        -2.349726
 C         1.999597         2.454289        -3.568971
 C         2.779870         1.159686        -3.127807
 C         1.853566         0.294252        -2.196783
 C         1.493713         1.108660        -1.044959
 C         2.531416         2.229679        -0.888831
 C         1.276459         0.368702         0.386170
 O         0.328668         0.443077         1.105097
 H         4.365800         3.829616        -2.380878
 H         0.958116         2.624217        -3.602810
 H         2.473796         3.043386        -4.383835
 H         3.688009         0.703522        -3.598656
 H         0.952662         0.029025        -2.747328
 H         2.308538        -0.596697        -1.885555
 H         0.520571         1.599189        -1.045291
 H         2.210031         3.208578        -0.579742
 H         3.541860         2.035536        -0.336268
 H         2.134711        -0.256318         0.684066
