19
Iteration:   884
 O         4.317649         2.777497        -2.482837
 C         2.946045         2.388420        -2.393285
 C         2.051382         2.645752        -3.558492
 C         2.520421         1.169635        -3.166443
 C         1.713472         0.338811        -2.117001
 C         1.399183         1.304412        -0.948054
 C         2.590893         2.381509        -0.944044
 C         1.446272         0.402260         0.329920
 O         0.468220         0.113695         0.928882
 H         4.367978         3.576179        -1.966802
 H         0.914932         2.873761        -3.612893
 H         2.643636         2.975394        -4.389511
 H         3.078812         0.483161        -3.824814
 H         0.774515        -0.291424        -2.466437
 H         2.456070        -0.439210        -1.776074
 H         0.387651         1.899771        -0.904257
 H         2.334515         3.327188        -0.302591
 H         3.456886         1.769638        -0.471706
 H         2.513797        -0.003513         0.475267
