19
Iteration:  3789
 O         4.260834         2.942343        -2.336388
 C         3.016258         2.402056        -2.428230
 C         2.151928         2.514926        -3.710911
 C         2.647785         1.130170        -3.184167
 C         1.834718         0.156030        -2.188806
 C         1.448539         1.050366        -1.018365
 C         2.415438         2.303009        -0.988052
 C         1.299667         0.414972         0.338540
 O         0.452913         0.463486         1.220878
 H         4.340854         3.759610        -2.920173
 H         1.069618         2.744858        -3.677154
 H         2.622980         2.969481        -4.651575
 H         3.243309         0.587549        -4.041497
 H         0.939085        -0.202879        -2.726221
 H         2.559600        -0.676510        -1.989102
 H         0.341738         1.580487        -1.244563
 H         1.740842         3.101432        -0.693892
 H         3.199396         2.061879        -0.350154
 H         2.268532        -0.068065         0.653932
