19
Iteration:  2486
 O         4.295644         2.881439        -2.338243
 C         3.046375         2.336215        -2.377753
 C         1.913942         2.381800        -3.393517
 C         2.684273         1.097759        -3.148461
 C         1.839684         0.232670        -2.202117
 C         1.369621         1.214036        -1.081033
 C         2.437717         2.306111        -1.038141
 C         1.423707         0.463615         0.222998
 O         0.488838         0.498695         1.034112
 H         4.439987         3.500415        -3.092502
 H         0.910346         2.677887        -3.093379
 H         2.131969         2.954015        -4.329012
 H         3.568002         0.813082        -3.798183
 H         1.073328        -0.249038        -2.730035
 H         2.481053        -0.514763        -1.726902
 H         0.321385         1.514311        -1.331560
 H         2.081277         3.230087        -0.620469
 H         3.059677         1.870304        -0.193276
 H         2.315963        -0.253622         0.338927
