19
Iteration:   451
 O         4.233416         2.981300        -2.462795
 C         3.042807         2.364483        -2.370773
 C         1.964279         2.402130        -3.543590
 C         2.593549         1.097317        -3.113148
 C         1.610266         0.376794        -2.160754
 C         1.548752         1.305343        -0.890223
 C         2.635310         2.305040        -0.892140
 C         1.471530         0.635383         0.468827
 O         0.409158         0.040659         0.733147
 H         4.720431         2.968526        -3.276291
 H         0.790744         2.253549        -3.511575
 H         2.413878         2.986907        -4.395081
 H         3.171497         0.554895        -3.828184
 H         0.613774         0.311269        -2.556321
 H         1.990100        -0.639107        -1.718186
 H         0.619353         1.849904        -0.932044
 H         2.503408         3.250831        -0.365511
 H         3.573799         1.951481        -0.307466
 H         2.437168         0.326561         0.917293
