19
Iteration:  3920charge 0 multiplicity 1
 O         4.378354         2.975651        -2.554836
 C         3.047631         2.383759        -2.349763
 C         2.006898         2.380825        -3.415917
 C         2.689004         1.110545        -3.082499
 C         1.883970         0.215457        -2.121541
 C         1.344689         1.263452        -1.003449
 C         2.474222         2.313136        -0.974202
 C         1.353821         0.514866         0.328936
 O         0.343120         0.283959         0.939984
 H         4.355586         3.567482        -3.358036
 H         0.943982         2.423861        -3.127782
 H         2.224895         2.728875        -4.393993
 H         3.124307         0.610458        -3.879614
 H         1.089586        -0.261096        -2.658568
 H         2.511136        -0.605453        -1.781084
 H         0.244690         1.540785        -1.110293
 H         2.333079         3.409001        -0.709492
 H         3.167097         1.876639        -0.155485
 H         2.376943         0.379810         0.768618
