19
Iteration:   548
 O         4.388940         2.723072        -2.452295
 C         2.994685         2.357948        -2.400243
 C         1.910551         2.566447        -3.524448
 C         2.555406         1.155026        -3.093970
 C         1.701527         0.343680        -2.127371
 C         1.498677         1.280806        -0.988866
 C         2.443758         2.458916        -0.985350
 C         1.567625         0.528826         0.376590
 O         0.475708         0.089073         0.813473
 H         4.325764         3.247218        -1.662457
 H         0.776336         2.757555        -3.110413
 H         2.187457         2.803459        -4.609284
 H         3.099239         0.685936        -3.885499
 H         0.768229        -0.034451        -2.490211
 H         2.325057        -0.567674        -1.709742
 H         0.453039         1.628794        -1.094121
 H         1.873870         3.387164        -0.749522
 H         3.260936         2.378841        -0.125225
 H         2.554044         0.413760         0.903410
