19
Iteration:   728
 O         4.398354         2.990355        -2.522329
 C         3.038382         2.354533        -2.384443
 C         1.930281         2.614035        -3.352125
 C         2.437812         1.223956        -3.152231
 C         1.874421         0.157822        -2.157304
 C         1.536827         1.049231        -0.949361
 C         2.612585         2.257114        -0.934248
 C         1.314975         0.275087         0.231011
 O         0.395169         0.451087         0.951712
 H         4.177509         3.941472        -2.795188
 H         1.110017         2.928300        -2.922991
 H         2.185485         2.959187        -4.282706
 H         2.744766         0.809728        -4.088334
 H         0.906641        -0.129387        -2.656754
 H         2.560989        -0.736290        -2.007113
 H         0.624455         1.529737        -1.126684
 H         2.237275         3.192290        -0.529772
 H         3.369990         1.925276        -0.131989
 H         1.965309        -0.654105         0.390075
