19
Iteration:  1875
 O         4.304001         3.071830        -2.540629
 C         3.010061         2.334570        -2.293724
 C         1.999423         2.550993        -3.485284
 C         2.655816         1.173710        -3.203774
 C         1.743578         0.300129        -2.255803
 C         1.374646         1.152173        -0.990957
 C         2.547482         2.155768        -0.839196
 C         1.341330         0.334288         0.263849
 O         0.457572         0.387236         1.058885
 H         4.862525         2.265435        -2.756697
 H         0.918444         2.737927        -3.347707
 H         2.485954         3.277047        -4.232385
 H         3.383738         0.783588        -3.933438
 H         0.750515         0.057145        -2.781408
 H         2.289868        -0.625894        -1.894784
 H         0.492143         1.710982        -1.144124
 H         2.260308         3.143291        -0.400989
 H         3.527045         1.681735        -0.304649
 H         2.288282        -0.377169         0.499358
