19
Iteration:  1868charge 0 multiplicity 1
 O         4.320188         3.073336        -2.534791
 C         3.035285         2.307451        -2.329897
 C         1.946526         2.563658        -3.411733
 C         2.619306         1.178815        -3.171264
 C         1.720051         0.247284        -2.229164
 C         1.442623         1.227810        -1.062306
 C         2.557644         2.158151        -0.849646
 C         1.371659         0.322573         0.219456
 O         0.446757         0.392852         1.046029
 H         4.928066         2.309905        -2.413014
 H         0.896914         2.469180        -3.316738
 H         2.331390         3.229113        -4.093813
 H         3.362166         0.704988        -3.904313
 H         0.864403        -0.051698        -2.818129
 H         2.267984        -0.623398        -1.956522
 H         0.462078         1.766298        -1.117530
 H         2.313904         3.185506        -0.489143
 H         3.325339         1.818230        -0.154439
 H         2.173973        -0.316050         0.431736
