19
Iteration:  3284charge 0 multiplicity 1
 O         4.331924         2.887345        -2.516564
 C         2.997841         2.353527        -2.381925
 C         1.965388         2.472923        -3.453219
 C         2.658990         1.145002        -3.140340
 C         1.917745         0.239104        -2.137857
 C         1.402685         1.168408        -1.054976
 C         2.504649         2.309363        -0.932977
 C         1.404267         0.415928         0.346399
 O         0.335527         0.418458         0.958917
 H         4.142959         3.845488        -2.411923
 H         0.915871         2.475412        -3.184879
 H         2.247865         3.096558        -4.272640
 H         3.154485         0.629078        -4.046939
 H         1.137731        -0.505489        -2.468652
 H         2.734695        -0.455971        -1.805709
 H         0.386493         1.532318        -1.271390
 H         2.186731         3.284463        -0.570585
 H         3.399636         2.050878        -0.395093
 H         2.310708        -0.088720         0.740110
