19
Iteration:  1205
 O         4.315830         2.819202        -2.569585
 C         3.008511         2.396915        -2.334551
 C         1.969259         2.615605        -3.542659
 C         2.590384         1.225126        -3.069650
 C         1.800410         0.356081        -2.257972
 C         1.478460         1.144596        -0.934151
 C         2.507409         2.316059        -0.909433
 C         1.429239         0.358004         0.332784
 O         0.395377         0.249324         0.970535
 H         4.534743         3.587110        -1.957235
 H         0.945310         2.736788        -3.311252
 H         2.362164         3.102893        -4.413532
 H         3.236400         0.734515        -3.861146
 H         0.906400        -0.106103        -2.791712
 H         2.336176        -0.578346        -2.005338
 H         0.529973         1.615038        -0.934846
 H         2.174340         3.257995        -0.510034
 H         3.375792         1.863015        -0.431438
 H         2.330324        -0.254234         0.718161
