19
Iteration:    65charge 0 multiplicity 1
 O         4.386162         2.996000        -2.300313
 C         3.039716         2.376704        -2.441325
 C         2.089203         2.578676        -3.614506
 C         2.610914         1.154554        -3.265887
 C         1.800286         0.157625        -2.251106
 C         1.321173         1.058831        -0.951483
 C         2.209741         2.314198        -1.104500
 C         1.487765         0.386927         0.445155
 O         0.496608         0.389269         1.142335
 H         4.957319         2.705382        -3.055813
 H         1.143251         3.032203        -3.497634
 H         2.459844         2.970937        -4.556583
 H         3.372054         0.722691        -3.899846
 H         0.989914        -0.421507        -2.671947
 H         2.564274        -0.462778        -1.816637
 H         0.194760         1.334427        -1.002346
 H         1.473456         3.111327        -1.046364
 H         2.928624         2.371831        -0.309400
 H         2.604478         0.152551         0.933868
