19
Iteration:  4233charge 0 multiplicity 1
 O         4.350991         2.930630        -2.406592
 C         3.007080         2.414959        -2.299297
 C         1.972070         2.331889        -3.575720
 C         2.620147         1.086018        -3.125025
 C         1.858694         0.194486        -2.177671
 C         1.345117         1.197184        -1.075449
 C         2.436580         2.321607        -0.875184
 C         1.458091         0.508530         0.262998
 O         0.449507         0.418670         0.976547
 H         4.303644         3.621400        -3.060450
 H         0.865613         2.604711        -3.365139
 H         2.509744         2.771158        -4.496173
 H         3.393608         0.754864        -3.872302
 H         0.897574        -0.265393        -2.512087
 H         2.513888        -0.645245        -1.925415
 H         0.352402         1.584171        -1.120595
 H         1.954826         3.245844        -0.540600
 H         3.123461         1.967310         0.007600
 H         2.423021         0.125587         0.488150
