19
Iteration:  2982
 O         4.308387         2.987614        -2.475567
 C         3.020606         2.358220        -2.338353
 C         1.931000         2.424457        -3.461777
 C         2.648541         1.167785        -3.164042
 C         1.990089         0.183338        -2.118449
 C         1.427446         1.126768        -1.098833
 C         2.515128         2.269802        -0.888566
 C         1.302685         0.385162         0.235135
 O         0.351014         0.510219         1.031546
 H         4.440106         3.356305        -3.335182
 H         1.017708         2.665833        -2.979203
 H         2.045243         3.105213        -4.281921
 H         3.295975         0.725960        -3.887745
 H         1.382967        -0.486329        -2.703517
 H         2.780427        -0.474212        -1.653751
 H         0.473922         1.532778        -1.366494
 H         2.109665         3.156182        -0.479135
 H         3.298102         1.904202        -0.288489
 H         2.092316        -0.421237         0.437277
