19
Iteration:   975
 O         4.439665         2.848887        -2.479293
 C         3.082431         2.438075        -2.417649
 C         2.000711         2.557569        -3.522128
 C         2.406194         1.168948        -3.141171
 C         1.722778         0.298178        -2.116715
 C         1.444670         1.374590        -0.813791
 C         2.530367         2.350171        -0.924679
 C         1.368572         0.407906         0.255216
 O         0.416276         0.041082         0.915841
 H         4.544688         3.650530        -3.085927
 H         1.065380         2.965232        -3.243850
 H         2.280084         2.969176        -4.545140
 H         3.227413         0.767511        -3.771300
 H         0.919845        -0.280937        -2.488775
 H         2.471988        -0.522181        -1.836334
 H         0.463956         1.842622        -1.029079
 H         2.247713         3.320606        -0.431896
 H         3.496378         1.832125        -0.522557
 H         2.433031         0.067059         0.477762
