19
Iteration:  4247charge 0 multiplicity 1
 O         4.264439         2.941160        -2.392966
 C         3.002871         2.304573        -2.341477
 C         1.989996         2.362722        -3.490300
 C         2.660937         1.084598        -3.051593
 C         1.866715         0.198364        -2.238364
 C         1.407016         1.200809        -1.018048
 C         2.446033         2.323370        -0.936743
 C         1.396409         0.478061         0.228622
 O         0.469602         0.469771         0.963841
 H         4.247975         3.780117        -2.943403
 H         0.835649         2.645110        -3.251527
 H         2.202592         2.768543        -4.470133
 H         3.450063         0.562510        -3.771506
 H         1.030922        -0.214337        -2.887579
 H         2.496683        -0.469263        -1.663808
 H         0.353422         1.551789        -1.328153
 H         2.224037         3.325619        -0.445264
 H         3.347418         1.972034        -0.424173
 H         2.343600         0.081527         0.566046
