19
Iteration:   582
 O         4.405459         2.912715        -2.612264
 C         3.108772         2.335578        -2.375076
 C         2.121270         2.629982        -3.553959
 C         2.568416         1.163274        -3.109082
 C         1.658297         0.324633        -2.205002
 C         1.342268         1.241412        -0.996926
 C         2.464196         2.339513        -0.935723
 C         1.366303         0.463160         0.392952
 O         0.456421         0.015959         1.103975
 H         4.342626         3.873023        -2.639960
 H         1.010989         3.005442        -3.436191
 H         2.529448         2.992282        -4.530235
 H         3.134528         0.579174        -3.846132
 H         0.751328        -0.104234        -2.603701
 H         2.167698        -0.518127        -1.624330
 H         0.410777         1.713503        -1.296289
 H         2.054913         3.317509        -0.629189
 H         3.360541         2.018454        -0.264753
 H         2.413955         0.286734         0.732308
