19
Iteration:  2863
 O         4.358450         2.922168        -2.631582
 C         3.090394         2.414313        -2.439124
 C         2.132845         2.414518        -3.615106
 C         2.629725         1.101619        -3.062065
 C         1.712989         0.336878        -2.050248
 C         1.440678         1.352175        -0.770606
 C         2.575774         2.458194        -0.977718
 C         1.289258         0.517259         0.418109
 O         0.290313        -0.044175         0.902288
 H         4.399994         3.447451        -3.468323
 H         1.094910         2.740283        -3.442003
 H         2.514859         2.850025        -4.497843
 H         3.307970         0.652231        -3.715300
 H         0.903877        -0.114371        -2.491628
 H         2.278907        -0.508147        -1.687995
 H         0.419013         1.793960        -0.789841
 H         2.099597         3.414193        -0.645428
 H         3.391075         2.208734        -0.265253
 H         2.264112         0.323201         0.964545
