19
Iteration:  1724charge 0 multiplicity 1
 O         4.353975         2.973436        -2.555824
 C         3.030479         2.447956        -2.360382
 C         2.019358         2.529543        -3.500467
 C         2.536395         1.171134        -3.120696
 C         1.683080         0.411536        -2.184595
 C         1.420776         1.289796        -0.864915
 C         2.680172         2.268823        -0.848608
 C         1.361742         0.400328         0.323357
 O         0.387949         0.086486         0.912326
 H         4.872691         2.429871        -3.231822
 H         0.925821         2.603720        -3.431387
 H         2.326544         2.921072        -4.475090
 H         3.060410         0.733523        -3.967810
 H         0.758738         0.130578        -2.747777
 H         2.023448        -0.578730        -1.890856
 H         0.400943         1.737571        -0.960034
 H         2.568908         3.188154        -0.215332
 H         3.487872         1.710904        -0.479826
 H         2.434369        -0.053203         0.708585
