19
Iteration:  1729charge 0 multiplicity 1
 O         4.344525         3.002291        -2.511251
 C         3.004182         2.390712        -2.395341
 C         2.019012         2.548545        -3.461214
 C         2.572177         1.134744        -3.111616
 C         1.653500         0.419835        -2.192289
 C         1.420152         1.268344        -0.867757
 C         2.701020         2.291386        -0.891305
 C         1.371291         0.383086         0.283744
 O         0.393325         0.113009         0.904050
 H         4.668328         2.407396        -3.175870
 H         0.957310         2.658793        -3.172754
 H         2.186281         2.910785        -4.477009
 H         3.033348         0.559936        -3.957860
 H         0.692960         0.162531        -2.628605
 H         2.211625        -0.491776        -1.813493
 H         0.461713         1.810955        -1.013869
 H         2.707244         3.218493        -0.323706
 H         3.571928         1.705375        -0.408264
 H         2.322480        -0.015435         0.650902
