19
Iteration:   298charge 0 multiplicity 1
 O         4.201115         3.233682        -2.589719
 C         3.069332         2.406715        -2.356417
 C         2.077129         2.414632        -3.507073
 C         2.664060         1.158109        -3.117470
 C         1.739066         0.211950        -2.266414
 C         1.442297         1.078364        -0.989342
 C         2.594742         2.162779        -0.827970
 C         1.288526         0.313186         0.275568
 O         0.391877         0.423928         1.104061
 H         5.019357         2.700120        -2.640444
 H         0.934076         2.731212        -3.458936
 H         2.637174         2.946301        -4.403997
 H         3.376224         0.595303        -3.726567
 H         0.823410         0.045720        -2.787914
 H         2.219387        -0.759827        -2.155889
 H         0.576589         1.682065        -1.142515
 H         2.181650         3.104515        -0.470938
 H         3.457456         1.767531        -0.302858
 H         2.292702        -0.261135         0.667442
