19
Iteration:  1509
 O         4.378598         2.934207        -2.540919
 C         3.076181         2.323595        -2.374798
 C         1.975934         2.759240        -3.393843
 C         2.503882         1.217108        -3.219755
 C         1.758912         0.320943        -2.251358
 C         1.443301         1.167086        -0.983718
 C         2.616476         2.175483        -0.904749
 C         1.355837         0.404827         0.348567
 O         0.363517         0.157056         1.070083
 H         4.519175         3.187539        -3.454565
 H         1.029475         3.110578        -3.050005
 H         2.251833         3.247761        -4.261387
 H         3.074010         0.765133        -4.016933
 H         0.982776        -0.325398        -2.689217
 H         2.559025        -0.519857        -1.988284
 H         0.457839         1.656252        -1.200400
 H         2.200612         3.163131        -0.637151
 H         3.522033         1.806863        -0.334403
 H         2.277547         0.031318         0.861684
