19
Iteration:  2866
 O         4.357478         2.934118        -2.631075
 C         3.088769         2.404903        -2.445928
 C         2.120237         2.434003        -3.591829
 C         2.628596         1.087888        -3.057231
 C         1.711981         0.360180        -2.034830
 C         1.456152         1.342497        -0.797571
 C         2.558614         2.439166        -0.958559
 C         1.298562         0.530224         0.392162
 O         0.296220        -0.032799         0.903724
 H         4.422680         3.417457        -3.466020
 H         1.076529         2.585998        -3.409649
 H         2.544199         2.740266        -4.562474
 H         3.423509         0.669306        -3.692428
 H         0.818224        -0.172938        -2.463809
 H         2.252025        -0.550093        -1.782192
 H         0.411089         1.812020        -0.889156
 H         2.125481         3.448012        -0.557300
 H         3.367964         2.066186        -0.240184
 H         2.258572         0.374562         0.957896
