19
Iteration:  1120charge 0 multiplicity 1
 O         4.331554         2.905721        -2.630829
 C         3.043942         2.403114        -2.316857
 C         1.926201         2.570948        -3.400326
 C         2.576363         1.241259        -3.121680
 C         1.834474         0.323671        -2.270245
 C         1.460701         1.168134        -0.914639
 C         2.650448         2.184344        -0.861496
 C         1.367642         0.406238         0.354295
 O         0.291023         0.221601         0.924895
 H         4.334796         3.650726        -3.208177
 H         0.890864         2.746131        -3.177151
 H         2.236798         2.958869        -4.337351
 H         3.442705         0.948872        -3.777316
 H         1.012296        -0.057727        -2.788987
 H         2.553966        -0.559752        -1.992002
 H         0.521201         1.687122        -0.948071
 H         2.351021         3.138960        -0.391174
 H         3.526611         1.828816        -0.176869
 H         2.361406         0.049911         0.794647
