19
Iteration:   345charge 0 multiplicity 1
 O         4.303594         2.939964        -2.564533
 C         2.972468         2.389006        -2.372641
 C         1.872593         2.548554        -3.419236
 C         2.490249         1.162346        -3.143109
 C         1.975298         0.257571        -2.128633
 C         1.548720         1.163424        -1.054270
 C         2.649035         2.199980        -0.898476
 C         1.364710         0.481975         0.336051
 O         0.315950         0.309958         0.886851
 H         4.458981         3.549734        -1.847438
 H         0.831672         2.664228        -2.993558
 H         2.128653         2.811266        -4.480362
 H         3.174010         0.709467        -3.852193
 H         1.168958        -0.493117        -2.305239
 H         2.794710        -0.274627        -1.712455
 H         0.619260         1.683894        -1.343375
 H         2.214186         3.176367        -0.576413
 H         3.476511         1.788368        -0.375161
 H         2.254373        -0.039500         0.815140
