19
Iteration:   937charge 0 multiplicity 1
 O         4.385533         2.830747        -2.731018
 C         3.075985         2.405356        -2.308932
 C         2.083476         2.542762        -3.425200
 C         2.623697         1.196412        -3.062990
 C         1.626605         0.309606        -2.244665
 C         1.370595         1.294160        -0.896328
 C         2.476831         2.352085        -0.878849
 C         1.409827         0.459176         0.320165
 O         0.444190         0.031579         0.936193
 H         4.548523         3.719138        -2.412278
 H         1.052045         2.814111        -3.088220
 H         2.472886         3.007646        -4.285420
 H         3.417155         0.727109        -3.682793
 H         0.590895         0.338300        -2.716576
 H         2.011147        -0.679032        -2.056283
 H         0.421722         1.856487        -0.944260
 H         2.069967         3.264173        -0.435358
 H         3.198459         2.121268        -0.117012
 H         2.457664         0.308894         0.739803
