19
Iteration:  1874
 O         4.309776         3.076112        -2.540409
 C         3.013122         2.325261        -2.298103
 C         1.990396         2.552524        -3.475472
 C         2.654355         1.172615        -3.203236
 C         1.737707         0.290423        -2.248936
 C         1.384622         1.166162        -1.003532
 C         2.545652         2.155361        -0.834780
 C         1.345075         0.334188         0.255094
 O         0.455991         0.388253         1.056973
 H         4.854268         2.250207        -2.706335
 H         0.874066         2.696470        -3.346752
 H         2.480421         3.302696        -4.224013
 H         3.362238         0.793423        -3.906525
 H         0.766738         0.055366        -2.793430
 H         2.300034        -0.638915        -1.893428
 H         0.487884         1.730480        -1.143358
 H         2.280129         3.137512        -0.429836
 H         3.496457         1.708246        -0.294705
 H         2.306773        -0.404775         0.517004
