19
Iteration:  2192charge 0 multiplicity 1
 O         4.236168         3.115949        -2.570741
 C         3.094269         2.343055        -2.462722
 C         1.984775         2.432213        -3.452669
 C         2.621216         1.111669        -3.170397
 C         1.881421         0.255851        -2.055813
 C         1.519383         1.259441        -0.884424
 C         2.690844         2.241908        -0.944530
 C         1.298101         0.479938         0.402735
 O         0.188140         0.237769         0.900902
 H         4.941931         2.868588        -3.204755
 H         1.026194         2.350180        -3.042412
 H         2.146782         2.958817        -4.444247
 H         3.313962         0.654062        -3.868032
 H         0.938267        -0.069449        -2.490480
 H         2.395597        -0.636314        -1.765331
 H         0.586306         1.661729        -1.246372
 H         2.437905         3.226345        -0.498742
 H         3.584407         1.696405        -0.400877
 H         2.264001         0.156905         0.825204
