19
Iteration:  4394charge 0 multiplicity 1
 O         4.334088         2.934344        -2.526886
 C         3.025838         2.440278        -2.379740
 C         2.053047         2.467452        -3.687450
 C         2.627916         1.198103        -3.248264
 C         1.935842         0.244754        -2.181845
 C         1.441892         1.084168        -1.006346
 C         2.477925         2.247211        -0.870477
 C         1.331734         0.426860         0.442578
 O         0.298300         0.423785         1.110065
 H         4.181261         3.885031        -2.614155
 H         0.957612         2.442246        -3.518849
 H         2.447650         2.845550        -4.587009
 H         3.487340         0.639288        -3.818915
 H         1.106198        -0.361761        -2.599930
 H         2.678209        -0.572112        -1.853794
 H         0.340747         1.383192        -1.040354
 H         2.148131         3.141432        -0.399055
 H         3.270007         1.806170        -0.269131
 H         2.048594        -0.230079         0.883069
