19
Iteration:  3921charge 0 multiplicity 1
 O         4.382299         2.978981        -2.554274
 C         3.059128         2.387201        -2.352836
 C         1.996883         2.374880        -3.407060
 C         2.684828         1.106561        -3.077534
 C         1.880627         0.214863        -2.121130
 C         1.337633         1.261929        -1.011299
 C         2.481026         2.320006        -0.972904
 C         1.358916         0.518722         0.327824
 O         0.341046         0.282135         0.937296
 H         4.342881         3.568221        -3.367043
 H         0.960329         2.437222        -3.127687
 H         2.238619         2.718517        -4.382357
 H         3.105711         0.598005        -3.868559
 H         1.097487        -0.276652        -2.676872
 H         2.530065        -0.589538        -1.781889
 H         0.209272         1.524417        -1.093337
 H         2.333583         3.389236        -0.706592
 H         3.180015         1.901803        -0.174945
 H         2.357861         0.349953         0.765624
