19
Iteration:  3493charge 0 multiplicity 1
 O         4.374248         2.876537        -2.607390
 C         3.056800         2.446075        -2.368322
 C         2.063471         2.347073        -3.519783
 C         2.630070         1.055879        -2.959467
 C         1.798174         0.302688        -2.045390
 C         1.296093         1.361515        -0.938246
 C         2.468060         2.465954        -1.006498
 C         1.412279         0.494386         0.330042
 O         0.402405         0.108277         0.841157
 H         4.395776         3.825376        -2.522941
 H         1.158464         2.712741        -3.141340
 H         2.303659         2.733082        -4.528385
 H         3.197015         0.491824        -3.664626
 H         1.002460        -0.049342        -2.727697
 H         2.247738        -0.557312        -1.562295
 H         0.298254         1.724555        -0.942328
 H         2.258397         3.528259        -0.666148
 H         3.097461         1.979201        -0.185620
 H         2.433322         0.170017         0.618612
