19
Iteration:   448
 O         4.235799         2.990566        -2.446738
 C         3.020125         2.354342        -2.361949
 C         1.933190         2.391958        -3.535866
 C         2.588931         1.090950        -3.126812
 C         1.625071         0.376443        -2.160453
 C         1.542004         1.331470        -0.900237
 C         2.664626         2.308951        -0.886510
 C         1.481708         0.621197         0.448742
 O         0.410978         0.052901         0.728324
 H         4.744928         2.930672        -3.286645
 H         0.785775         2.317052        -3.557974
 H         2.407539         2.917760        -4.422645
 H         3.239804         0.485402        -3.781339
 H         0.602901         0.252078        -2.581335
 H         2.008198        -0.607690        -1.693178
 H         0.551638         1.861073        -0.979987
 H         2.553278         3.239346        -0.287976
 H         3.586092         1.880375        -0.270765
 H         2.416442         0.330568         0.963799
