19
Iteration:  3923
 O         4.388985         2.987832        -2.554016
 C         3.090152         2.392922        -2.363660
 C         1.973872         2.362276        -3.386972
 C         2.670942         1.096150        -3.059931
 C         1.872688         0.217150        -2.121294
 C         1.320278         1.255079        -1.028384
 C         2.498418         2.336707        -0.967879
 C         1.368426         0.530737         0.323958
 O         0.335780         0.276782         0.931770
 H         4.310393         3.546993        -3.352785
 H         0.973287         2.485316        -3.122629
 H         2.274870         2.713205        -4.380133
 H         3.114924         0.545972        -3.887432
 H         1.092918        -0.317964        -2.718632
 H         2.579362        -0.555412        -1.759462
 H         0.186584         1.488194        -1.067537
 H         2.307322         3.335526        -0.684424
 H         3.212468         1.975408        -0.247594
 H         2.331966         0.266661         0.762172
