19
Iteration:  1167
 O         4.374503         2.956241        -2.585437
 C         3.106867         2.373328        -2.393118
 C         1.979126         2.583153        -3.444869
 C         2.488455         1.220525        -3.147925
 C         1.798325         0.273965        -2.130311
 C         1.432270         1.199235        -0.951232
 C         2.552229         2.258537        -0.959796
 C         1.403215         0.340265         0.336153
 O         0.351122         0.245976         0.938463
 H         4.584666         3.547831        -1.815512
 H         0.993623         2.971241        -3.056038
 H         2.258152         3.021341        -4.465109
 H         2.893928         0.686792        -3.954475
 H         0.970599        -0.319812        -2.596502
 H         2.643419        -0.372798        -1.826387
 H         0.340796         1.547340        -1.135312
 H         2.311454         3.167262        -0.301219
 H         3.430453         1.821846        -0.408715
 H         2.351957        -0.287647         0.529270
