19
Iteration:  2663charge 0 multiplicity 1
 O         4.361996         2.891534        -2.641443
 C         3.082696         2.348574        -2.381943
 C         2.001300         2.478631        -3.519951
 C         2.585358         1.115609        -3.071653
 C         1.836352         0.260463        -2.061015
 C         1.422214         1.264194        -0.878044
 C         2.565200         2.347516        -0.995525
 C         1.328012         0.553867         0.351453
 O         0.320206         0.143745         0.882851
 H         4.531402         3.784518        -2.286695
 H         0.877436         2.596926        -3.265891
 H         2.402107         3.123620        -4.292574
 H         3.186075         0.467503        -3.707779
 H         0.929756        -0.124859        -2.463090
 H         2.464648        -0.558494        -1.676731
 H         0.426081         1.704536        -0.988184
 H         2.190511         3.388148        -0.873539
 H         3.430846         2.189121        -0.215200
 H         2.306780         0.434120         0.909676
