19
Iteration:  3744charge 0 multiplicity 1
 O         4.316029         3.026382        -2.394143
 C         3.010000         2.388905        -2.393563
 C         2.044064         2.497898        -3.533440
 C         2.700872         1.114375        -3.085934
 C         1.834098         0.154147        -2.217523
 C         1.342074         1.025525        -1.060481
 C         2.444962         2.229576        -0.948134
 C         1.295036         0.403939         0.255352
 O         0.496935         0.534026         1.127202
 H         4.454931         3.422059        -3.296636
 H         0.971945         2.741849        -3.434150
 H         2.466231         2.767117        -4.542098
 H         3.499733         0.611320        -3.698470
 H         0.916513        -0.210998        -2.654696
 H         2.467123        -0.703586        -1.855609
 H         0.271829         1.484044        -1.369000
 H         1.806478         3.100089        -0.719930
 H         3.316590         2.100262        -0.435815
 H         2.286371        -0.035229         0.430952
