19
Iteration:  4347
 O         4.394614         2.996704        -2.505502
 C         3.047087         2.338504        -2.364107
 C         1.863522         2.381846        -3.364709
 C         2.676392         1.093062        -3.134059
 C         1.952788         0.174892        -2.166824
 C         1.403379         1.137974        -1.036443
 C         2.464910         2.203627        -0.931817
 C         1.351634         0.451119         0.212834
 O         0.385108         0.560309         0.961200
 H         4.070161         3.908605        -2.449562
 H         0.803420         2.511876        -3.125097
 H         2.205102         2.965479        -4.277882
 H         3.203098         0.657056        -3.887501
 H         1.099769        -0.380981        -2.594565
 H         2.716012        -0.526631        -1.786381
 H         0.331556         1.494376        -1.274248
 H         1.945671         3.144524        -0.550069
 H         3.243447         2.009960        -0.198424
 H         2.311329        -0.056168         0.604415
