19
Iteration:  2670charge 0 multiplicity 1
 O         4.355898         2.893860        -2.651053
 C         3.070324         2.297342        -2.359836
 C         2.034260         2.452046        -3.445071
 C         2.598264         1.085104        -3.070252
 C         1.809827         0.297098        -2.048381
 C         1.455463         1.357303        -0.920767
 C         2.556257         2.361775        -1.007210
 C         1.332369         0.547152         0.332945
 O         0.341622         0.124463         0.863072
 H         4.249501         3.769797        -2.174269
 H         1.007226         2.573790        -3.243772
 H         2.293142         2.989755        -4.344713
 H         3.113116         0.569750        -3.837413
 H         0.749101        -0.169382        -2.286632
 H         2.450965        -0.326305        -1.406969
 H         0.475348         1.789304        -1.161175
 H         2.127439         3.325316        -0.837832
 H         3.228477         2.137747        -0.215942
 H         2.383608         0.269350         0.661146
