19
Iteration:   849
 O         4.429011         2.766987        -2.633923
 C         3.088555         2.412526        -2.372933
 C         1.988956         2.699179        -3.382425
 C         2.670957         1.203939        -3.060240
 C         1.772911         0.271351        -2.254844
 C         1.374913         1.225061        -1.019649
 C         2.420130         2.379719        -0.940264
 C         1.341188         0.388501         0.333668
 O         0.434833         0.127426         1.073589
 H         4.284938         3.661197        -2.970777
 H         1.001116         2.785299        -3.095099
 H         2.210305         3.148110        -4.345043
 H         3.228382         0.773507        -3.978171
 H         0.798109        -0.010662        -2.778263
 H         2.217862        -0.672713        -1.900118
 H         0.353517         1.543529        -1.091470
 H         2.041457         3.345417        -0.547665
 H         3.315846         2.107301        -0.309348
 H         2.359368         0.040854         0.677302
