19
Iteration:  2892
 O         4.285355         2.969776        -2.529412
 C         3.055529         2.399804        -2.352283
 C         1.999616         2.330889        -3.467450
 C         2.668511         1.079617        -2.982682
 C         1.725337         0.263738        -2.103229
 C         1.365067         1.353750        -0.956845
 C         2.631530         2.271411        -0.935480
 C         1.348430         0.647868         0.292620
 O         0.408459         0.150439         0.814457
 H         4.309310         3.374925        -3.410977
 H         0.961822         2.674991        -3.175276
 H         2.488964         2.875426        -4.303179
 H         3.302271         0.684251        -3.804060
 H         0.983100        -0.304285        -2.770381
 H         2.288016        -0.640124        -1.623867
 H         0.442283         1.869605        -1.010360
 H         2.376320         3.150182        -0.434362
 H         3.373395         1.750359        -0.344205
 H         2.358935         0.481119         0.712363
