19
Iteration:  4661
 O         4.272820         2.890300        -2.677523
 C         3.060604         2.317841        -2.374965
 C         2.000458         2.475327        -3.408593
 C         2.727361         1.109647        -2.999716
 C         1.955883         0.191660        -2.060764
 C         1.431100         1.209698        -0.981794
 C         2.453257         2.307971        -0.928561
 C         1.388456         0.523950         0.310678
 O         0.297729         0.376752         0.873049
 H         4.176849         3.880275        -2.590803
 H         0.894651         2.521492        -3.025499
 H         1.947260         2.945008        -4.389969
 H         3.284397         0.698510        -3.908651
 H         1.170042        -0.382389        -2.639729
 H         2.495548        -0.615099        -1.486347
 H         0.376488         1.491085        -1.187463
 H         2.307766         3.328698        -0.723231
 H         3.271799         2.129877        -0.227223
 H         2.257769         0.102272         0.701139
