19
Iteration:  4173charge 0 multiplicity 1
 O         4.376952         2.905929        -2.570536
 C         2.985438         2.425637        -2.405094
 C         2.173887         2.397922        -3.664047
 C         2.605168         1.135733        -3.027985
 C         1.794155         0.330420        -2.135046
 C         1.375533         1.164926        -0.979963
 C         2.395458         2.394678        -1.028562
 C         1.367973         0.404552         0.327608
 O         0.407170         0.251074         1.096426
 H         4.497991         3.811543        -2.313052
 H         1.155575         2.781106        -3.543151
 H         2.494905         2.812942        -4.537192
 H         3.561614         0.668977        -3.465261
 H         0.912227        -0.277227        -2.440087
 H         2.421129        -0.568150        -1.608646
 H         0.304495         1.599989        -1.111116
 H         1.789317         3.284450        -0.690447
 H         3.149734         2.184357        -0.216653
 H         2.312731         0.145185         0.796954
