19
Iteration:  4949
 O         4.343914         2.962207        -2.527988
 C         3.052423         2.398529        -2.337820
 C         2.080945         2.275970        -3.557620
 C         2.707597         1.087219        -3.096363
 C         1.830217         0.195917        -2.140878
 C         1.428810         1.244525        -1.024769
 C         2.331759         2.384734        -0.959548
 C         1.380815         0.449350         0.278985
 O         0.419536         0.371339         1.043360
 H         4.188673         3.893400        -2.646002
 H         1.067190         2.435382        -3.319839
 H         2.379013         2.774884        -4.465979
 H         3.385273         0.465941        -3.694314
 H         0.746106         0.073060        -2.562013
 H         2.383013        -0.528932        -1.577528
 H         0.305571         1.563926        -1.086488
 H         1.702772         3.356306        -0.839825
 H         3.062652         2.311080        -0.102294
 H         2.337785        -0.110991         0.437981
