19
Iteration:  4854
 O         4.337809         2.948994        -2.373281
 C         3.087690         2.326934        -2.361852
 C         2.021906         2.353642        -3.522865
 C         2.688384         1.077861        -3.080694
 C         1.829142         0.114532        -2.231435
 C         1.294739         1.084658        -1.072560
 C         2.308364         2.419019        -1.011280
 C         1.420276         0.431800         0.242033
 O         0.520431         0.541153         1.070922
 H         4.451641         3.898355        -2.408574
 H         0.949553         2.476792        -3.236186
 H         2.183646         2.952398        -4.439931
 H         3.432437         0.766930        -3.873109
 H         1.050382        -0.232130        -2.874280
 H         2.583162        -0.535434        -1.675851
 H         0.284265         1.375251        -1.306110
 H         1.804865         3.376401        -0.920730
 H         2.848365         2.333882        -0.054922
 H         2.396284         0.050281         0.430988
