19
Iteration:  1235charge 0 multiplicity 1
 O         4.415305         2.949531        -2.562755
 C         3.118811         2.374894        -2.305139
 C         2.047671         2.612708        -3.437473
 C         2.562114         1.197593        -3.083832
 C         1.741087         0.252762        -2.254924
 C         1.334614         1.196881        -1.061435
 C         2.516101         2.229160        -0.949073
 C         1.293631         0.461202         0.246083
 O         0.473905         0.149581         1.134020
 H         4.137326         3.718582        -3.046610
 H         1.009746         2.906898        -3.125811
 H         2.375332         3.107961        -4.342142
 H         3.131365         0.661334        -3.928484
 H         0.866166        -0.292139        -2.764618
 H         2.352904        -0.461790        -1.777558
 H         0.395020         1.836384        -1.186996
 H         2.168071         3.255376        -0.607911
 H         3.234111         1.839337        -0.243421
 H         2.257552        -0.059846         0.372711
