19
Iteration:  2019
 O         4.354202         3.078781        -2.349975
 C         3.043801         2.346013        -2.393008
 C         2.179923         2.511709        -3.705296
 C         2.424083         1.164422        -3.147315
 C         1.694646         0.307511        -2.169026
 C         1.330857         1.198885        -0.907411
 C         2.484765         2.323296        -1.020991
 C         1.423633         0.325717         0.305659
 O         0.490172         0.246840         1.081881
 H         4.987908         2.423547        -2.728860
 H         1.243923         3.039224        -3.750680
 H         2.831355         2.749215        -4.450913
 H         2.904018         0.406687        -3.803792
 H         0.695167        -0.067564        -2.606850
 H         2.369146        -0.612816        -2.064051
 H         0.371682         1.622321        -0.873315
 H         1.902695         3.254186        -0.869356
 H         3.313631         2.160108        -0.371591
 H         2.404898        -0.298879         0.601735
