19
Iteration:  4725charge 0 multiplicity 1
 O         4.239541         2.984710        -2.592954
 C         2.939126         2.402801        -2.318006
 C         2.085809         2.431290        -3.545791
 C         2.697694         1.118032        -3.090639
 C         1.963614         0.174554        -2.185377
 C         1.432296         1.114831        -0.984328
 C         2.550992         2.220565        -0.981777
 C         1.297458         0.474977         0.350908
 O         0.307407         0.491255         1.056421
 H         4.285727         3.957663        -2.681884
 H         0.962793         2.438479        -3.242629
 H         2.515556         2.915120        -4.469217
 H         3.479513         0.688341        -3.828690
 H         1.123935        -0.463264        -2.533137
 H         2.663796        -0.550613        -1.840461
 H         0.454218         1.573644        -1.237912
 H         2.145110         3.099002        -0.493742
 H         3.364169         1.708426        -0.353056
 H         2.159732        -0.211396         0.659240
