19
Iteration:  4596
 O         4.310805         2.975789        -2.569697
 C         3.081699         2.378124        -2.456382
 C         2.123332         2.396783        -3.696255
 C         2.595171         1.074510        -3.137636
 C         1.790036         0.289402        -1.982048
 C         1.439982         1.266687        -0.882372
 C         2.560597         2.405094        -0.974256
 C         1.353706         0.476357         0.484676
 O         0.262101         0.160660         0.929258
 H         4.268110         3.904332        -2.775648
 H         0.976710         2.556661        -3.782116
 H         2.662072         2.672703        -4.590134
 H         3.117665         0.419964        -3.767258
 H         0.857913        -0.239111        -2.358348
 H         2.612233        -0.432411        -1.621143
 H         0.474489         1.772086        -1.019547
 H         2.158889         3.252924        -0.389364
 H         3.410066         2.060124        -0.380825
 H         2.472049         0.407871         0.992690
