19
Iteration:  4959
 O         4.297418         2.923928        -2.529382
 C         3.075929         2.326246        -2.357319
 C         2.032490         2.319549        -3.489398
 C         2.713761         1.055528        -2.980743
 C         1.860397         0.282911        -2.154911
 C         1.336022         1.204369        -1.000774
 C         2.371458         2.394241        -0.994538
 C         1.439615         0.479137         0.313461
 O         0.420377         0.393114         0.953228
 H         4.142525         3.826199        -2.747174
 H         1.014136         2.416686        -3.245659
 H         2.385209         2.788070        -4.385253
 H         3.457355         0.779357        -3.686858
 H         0.987614        -0.312166        -2.653254
 H         2.401221        -0.580241        -1.924291
 H         0.310609         1.601929        -1.375458
 H         1.756007         3.343290        -0.760648
 H         3.168734         2.311362        -0.197509
 H         2.455511         0.014865         0.501681
