19
Iteration:   760charge 0 multiplicity 1
 O         4.291747         3.032840        -2.669679
 C         3.107940         2.326117        -2.326916
 C         2.004555         2.564340        -3.381153
 C         2.644730         1.197825        -3.176059
 C         1.809169         0.309410        -2.281077
 C         1.413167         1.125018        -0.975023
 C         2.618878         2.133865        -0.918842
 C         1.321098         0.356421         0.312851
 O         0.337106         0.345941         1.104484
 H         4.267110         3.900702        -2.277463
 H         1.022045         2.646257        -3.031463
 H         2.298132         3.175192        -4.178996
 H         3.212400         0.864926        -4.027592
 H         0.940453         0.013542        -2.902137
 H         2.260564        -0.661353        -1.947839
 H         0.474287         1.539488        -1.102050
 H         2.350953         3.050243        -0.417012
 H         3.379671         1.557951        -0.288048
 H         2.214257        -0.293877         0.501317
