19
Iteration:   854
 O         4.410528         2.733730        -2.628497
 C         3.069719         2.438745        -2.374373
 C         2.002580         2.682420        -3.440271
 C         2.670135         1.259144        -3.055605
 C         1.782677         0.297810        -2.216230
 C         1.352713         1.198900        -1.026541
 C         2.444673         2.327231        -0.892735
 C         1.394814         0.453848         0.323589
 O         0.427548         0.114827         1.050289
 H         4.279563         3.665999        -2.905906
 H         0.875853         2.859192        -3.102224
 H         2.173761         3.029847        -4.473124
 H         3.186081         0.705174        -3.765271
 H         0.863530         0.019228        -2.735288
 H         2.209544        -0.700951        -1.930852
 H         0.263716         1.659906        -1.078662
 H         1.911969         3.253343        -0.485692
 H         3.317131         2.025025        -0.264749
 H         2.427392         0.005648         0.513783
