19
Iteration:  1920
 O         4.358199         2.941536        -2.340391
 C         3.067135         2.425387        -2.496695
 C         2.090670         2.562775        -3.590417
 C         2.562970         1.180389        -3.284441
 C         1.733211         0.285429        -2.237744
 C         1.366052         1.129466        -0.939767
 C         2.487767         2.234425        -0.910672
 C         1.303014         0.346408         0.299161
 O         0.486372         0.327795         1.174861
 H         4.572107         3.565742        -3.080990
 H         1.088357         2.851538        -3.351545
 H         2.501987         3.030742        -4.466517
 H         3.222429         0.620344        -4.030987
 H         0.790955         0.004223        -2.812847
 H         2.399011        -0.591612        -2.100400
 H         0.376851         1.502412        -0.960154
 H         2.079179         3.215796        -0.524556
 H         3.406731         1.916022        -0.242671
 H         2.236794        -0.387510         0.492872
