19
Iteration:  4991
 O         4.351439         2.933560        -2.550119
 C         2.971921         2.374666        -2.364516
 C         2.055414         2.392657        -3.562453
 C         2.629916         1.119095        -3.115286
 C         1.930942         0.182215        -2.065292
 C         1.415226         1.158014        -0.994979
 C         2.454156         2.312762        -1.006759
 C         1.305912         0.638395         0.359216
 O         0.355300         0.286999         1.028436
 H         4.314824         3.919874        -2.714463
 H         1.061906         2.690345        -3.378326
 H         2.380140         2.753921        -4.526314
 H         3.373845         0.653874        -3.755914
 H         1.191086        -0.432628        -2.672311
 H         2.771942        -0.489587        -1.938969
 H         0.441077         1.638080        -1.465386
 H         2.002237         3.239845        -0.523373
 H         3.254474         2.052080        -0.276176
 H         2.251559         0.314905         0.935129
