19
Iteration:  2508
 O         4.324758         3.001783        -2.390740
 C         3.062550         2.331247        -2.412273
 C         2.043264         2.519738        -3.532933
 C         2.586669         1.059237        -3.146007
 C         1.850955         0.170980        -2.213813
 C         1.416364         1.148973        -1.077910
 C         2.494430         2.210181        -1.001651
 C         1.301333         0.417045         0.307707
 O         0.424501         0.475002         1.145456
 H         4.144455         3.836095        -2.841762
 H         0.993062         2.750180        -3.444054
 H         2.461945         2.990258        -4.484410
 H         3.064978         0.632597        -4.055825
 H         1.009868        -0.350970        -2.543472
 H         2.601297        -0.498945        -1.839055
 H         0.411148         1.563330        -1.354185
 H         2.002268         3.075000        -0.582888
 H         3.384057         1.996205        -0.303226
 H         2.389462         0.097738         0.639725
