19
Iteration:  3443
 O         4.416019         2.861840        -2.575562
 C         3.040755         2.411745        -2.418056
 C         2.134996         2.546860        -3.589710
 C         2.554316         1.136385        -3.140965
 C         1.783628         0.251830        -2.075420
 C         1.432142         1.216901        -0.866712
 C         2.396908         2.358232        -1.085559
 C         1.348339         0.662291         0.574464
 O         0.347426         0.016526         0.902983
 H         4.397782         3.824838        -2.716866
 H         1.024103         2.753719        -3.710066
 H         2.741194         2.786289        -4.507939
 H         3.332027         0.735784        -3.732690
 H         0.973267        -0.355301        -2.505366
 H         2.577591        -0.462196        -1.702671
 H         0.424686         1.754744        -0.856941
 H         2.016426         3.219505        -0.601263
 H         3.235187         2.080307        -0.468081
 H         2.283451         0.591601         1.116151
