19
Iteration:  2960
 O         4.271382         2.910351        -2.612853
 C         2.983041         2.449632        -2.387953
 C         2.009370         2.553829        -3.523689
 C         2.687352         1.229348        -3.107171
 C         2.025524         0.211710        -2.166921
 C         1.505140         1.053994        -0.913419
 C         2.502030         2.269032        -0.917552
 C         1.263075         0.331566         0.352789
 O         0.233733         0.433236         1.067362
 H         4.629295         3.164307        -3.516653
 H         0.986716         2.888474        -3.482193
 H         2.582738         3.100473        -4.261171
 H         3.329275         0.842523        -3.844939
 H         1.248790        -0.486611        -2.462103
 H         2.873992        -0.477405        -1.868522
 H         0.552440         1.424189        -1.232864
 H         2.026223         3.130693        -0.555422
 H         3.401786         2.107609        -0.430946
 H         2.085511        -0.368683         0.690042
