19
Iteration:  2807
 O         4.381534         2.668321        -2.590322
 C         3.032217         2.376814        -2.351988
 C         2.002022         2.473897        -3.489506
 C         2.586508         1.122462        -3.008678
 C         1.783690         0.324896        -2.026605
 C         1.388464         1.407201        -0.980467
 C         2.429444         2.537824        -0.987834
 C         1.420691         0.651180         0.356204
 O         0.454433        -0.019331         0.780999
 H         4.480411         3.560547        -2.255546
 H         0.889105         2.581944        -3.518147
 H         2.421139         2.624135        -4.527523
 H         3.390548         0.665758        -3.645662
 H         0.949048        -0.077330        -2.466474
 H         2.408601        -0.343997        -1.465206
 H         0.322135         1.629567        -1.038111
 H         2.092008         3.554242        -0.679407
 H         3.064568         2.143591        -0.159579
 H         2.409546         0.537459         0.892984
