19
Iteration:  4653charge 0 multiplicity 1
 O         4.303524         2.889117        -2.688766
 C         3.089033         2.379424        -2.359083
 C         1.967429         2.400432        -3.354720
 C         2.697672         1.121872        -3.064000
 C         1.909194         0.190434        -2.049100
 C         1.360458         1.195466        -1.006758
 C         2.501333         2.342345        -0.913346
 C         1.381467         0.579240         0.334300
 O         0.320374         0.346050         0.850066
 H         4.170316         3.865134        -2.808358
 H         0.962456         2.478557        -2.999343
 H         2.268595         2.837787        -4.314249
 H         3.564266         0.591226        -3.664324
 H         1.100439        -0.370460        -2.594719
 H         2.691470        -0.626255        -1.757538
 H         0.382712         1.672911        -1.139063
 H         1.898348         3.224935        -0.491544
 H         3.272779         1.999749        -0.234873
 H         2.341464         0.060963         0.700006
