19
Iteration:  1409
 O         4.346371         3.056873        -2.623912
 C         3.078238         2.425070        -2.390349
 C         2.038032         2.622786        -3.381396
 C         2.507857         1.143570        -3.162549
 C         1.703470         0.284722        -2.337818
 C         1.413773         1.117208        -0.948338
 C         2.627913         2.151125        -0.943023
 C         1.372551         0.346598         0.348919
 O         0.378040         0.293174         1.099300
 H         4.678728         3.438674        -1.797080
 H         1.102539         3.049621        -3.189203
 H         2.283943         2.910769        -4.384143
 H         3.135524         0.760949        -4.001703
 H         0.863543        -0.110015        -2.948877
 H         2.482263        -0.595069        -2.085949
 H         0.448313         1.701576        -1.156454
 H         2.330665         2.971811        -0.230506
 H         3.439999         1.492313        -0.433569
 H         2.255065        -0.301907         0.726311
