19
Iteration:  1974charge 0 multiplicity 1
 O         4.382210         2.803948        -2.563712
 C         3.037301         2.397858        -2.330705
 C         2.027896         2.482768        -3.456083
 C         2.655817         1.225270        -3.071819
 C         1.705416         0.377612        -2.309568
 C         1.296702         1.163222        -1.098048
 C         2.336202         2.330174        -0.916153
 C         1.403225         0.440748         0.271020
 O         0.569997         0.281524         1.099568
 H         4.810403         2.894707        -1.678078
 H         1.001239         2.784665        -3.279212
 H         2.501553         2.901482        -4.316162
 H         3.578295         0.928161        -3.678547
 H         0.853357        -0.120462        -2.904605
 H         2.325329        -0.521187        -1.940556
 H         0.306154         1.473639        -1.133523
 H         1.833323         3.244831        -0.598459
 H         3.094770         1.946025        -0.242336
 H         2.428138         0.095074         0.463965
