19
Iteration:  2299
 O         4.245765         2.824710        -2.536576
 C         2.942675         2.337144        -2.399027
 C         2.095516         2.535555        -3.630452
 C         2.611793         1.185626        -3.113406
 C         1.859391         0.259682        -2.105422
 C         1.428625         1.183264        -0.964397
 C         2.472078         2.351928        -0.946327
 C         1.371981         0.534918         0.360115
 O         0.417108         0.281764         1.007100
 H         4.518853         3.389417        -1.785353
 H         1.044635         2.537964        -3.646546
 H         2.562603         2.854430        -4.594660
 H         3.462788         0.815896        -3.656111
 H         1.003220        -0.251896        -2.542374
 H         2.691582        -0.559613        -1.809514
 H         0.432715         1.463208        -1.422033
 H         2.171230         3.252472        -0.491619
 H         3.255208         1.986896        -0.329386
 H         2.375231         0.156731         0.667285
