19
Iteration:    54
 O         4.382583         2.896602        -2.278625
 C         3.008306         2.344193        -2.430922
 C         1.974275         2.604069        -3.584792
 C         2.593448         1.159629        -3.211797
 C         1.924031         0.120573        -2.225675
 C         1.384722         1.103917        -1.036346
 C         2.266222         2.422042        -1.121361
 C         1.401207         0.467895         0.374318
 O         0.482796         0.338203         1.182926
 H         4.733017         2.797882        -3.162407
 H         0.968068         2.857315        -3.369725
 H         2.530361         2.994387        -4.413201
 H         3.339730         0.894937        -3.944572
 H         1.186902        -0.592809        -2.572956
 H         2.714482        -0.494768        -1.832674
 H         0.242329         1.286028        -1.151466
 H         1.808199         3.409808        -1.085164
 H         2.988305         2.494829        -0.330539
 H         2.531101        -0.063471         0.582069
