19
Iteration:   653charge 0 multiplicity 1
 O         4.322912         3.121363        -2.408751
 C         3.118718         2.293146        -2.412242
 C         2.003677         2.593536        -3.370170
 C         2.502656         1.113725        -3.222265
 C         1.709736         0.176905        -2.261266
 C         1.507697         1.123340        -0.950299
 C         2.603020         2.271351        -0.973089
 C         1.385137         0.372210         0.325269
 O         0.409220         0.361471         0.980742
 H         4.605105         3.235228        -3.300528
 H         1.027758         2.674591        -2.962599
 H         2.198338         3.238815        -4.186271
 H         2.944096         0.611565        -4.048666
 H         0.686485        -0.219193        -2.602781
 H         2.316513        -0.718521        -1.948454
 H         0.445023         1.488697        -1.105972
 H         2.070314         3.184435        -0.610888
 H         3.309879         1.765811        -0.251661
 H         2.236281        -0.300407         0.573163
