19
Iteration:  1941
 O         4.376069         2.852347        -2.393056
 C         3.030530         2.286287        -2.337828
 C         2.011466         2.546246        -3.419490
 C         2.590695         1.173966        -3.136845
 C         1.694881         0.279341        -2.218301
 C         1.340963         1.204060        -1.088328
 C         2.457576         2.317957        -1.025884
 C         1.418419         0.371399         0.207811
 O         0.558417         0.354918         1.048603
 H         4.038835         3.748259        -2.419979
 H         1.058155         2.997279        -3.179919
 H         2.569249         2.999333        -4.266127
 H         3.348107         0.759123        -3.883083
 H         0.746806        -0.184928        -2.675331
 H         2.418129        -0.508852        -1.827705
 H         0.363089         1.570168        -1.057868
 H         2.012804         3.279721        -0.708295
 H         3.214076         2.128749        -0.212394
 H         2.267817        -0.254425         0.304365
