19
Iteration:  1862
 O         4.294297         3.029987        -2.524373
 C         3.075676         2.346444        -2.336050
 C         1.941144         2.536525        -3.324852
 C         2.588040         1.161515        -3.144978
 C         1.732151         0.260002        -2.259384
 C         1.453267         1.216766        -1.061063
 C         2.605269         2.208155        -0.911492
 C         1.331735         0.355613         0.200914
 O         0.456396         0.392541         1.016704
 H         5.070015         2.567376        -2.168316
 H         0.814069         2.436243        -3.110880
 H         2.225187         3.183944        -4.248864
 H         3.198240         0.684638        -3.829897
 H         0.824949        -0.192724        -2.751816
 H         2.315681        -0.680769        -1.944907
 H         0.472523         1.699099        -1.130112
 H         2.221075         3.138370        -0.508859
 H         3.313272         1.802410        -0.082500
 H         2.321785        -0.398177         0.272360
