19
Iteration:  1368charge 0 multiplicity 1
 O         4.288937         2.896870        -2.544512
 C         2.999344         2.399782        -2.347869
 C         1.971310         2.564325        -3.447838
 C         2.508036         1.227139        -3.194956
 C         1.816347         0.340552        -2.321509
 C         1.430511         1.128182        -0.957328
 C         2.585131         2.261284        -0.833363
 C         1.422934         0.290940         0.281063
 O         0.440825         0.363920         1.005071
 H         4.767280         2.812374        -1.731726
 H         0.987349         2.787101        -3.039183
 H         2.374987         3.137201        -4.237304
 H         3.088650         0.753169        -4.024470
 H         0.899456        -0.201449        -2.687315
 H         2.409781        -0.418146        -2.032891
 H         0.502099         1.720431        -0.956320
 H         2.247231         3.195310        -0.439459
 H         3.462832         1.883861        -0.352208
 H         2.293930        -0.377647         0.321435
