19
Iteration:  2081charge 0 multiplicity 1
 O         4.405759         2.899603        -2.562482
 C         3.064336         2.375002        -2.362570
 C         2.072222         2.460614        -3.467076
 C         2.577736         1.104605        -3.092589
 C         1.751809         0.312195        -2.166813
 C         1.360399         1.256732        -1.009535
 C         2.426456         2.325877        -0.908699
 C         1.415014         0.477863         0.301451
 O         0.408282         0.185570         0.976456
 H         4.213156         3.696927        -3.091427
 H         1.086608         2.820664        -2.993308
 H         2.345435         3.120532        -4.280603
 H         3.379802         0.600412        -3.729440
 H         0.889422        -0.031812        -2.713491
 H         2.405830        -0.475790        -1.844600
 H         0.301190         1.622413        -1.149501
 H         2.107166         3.281464        -0.462066
 H         3.276919         2.006625        -0.186819
 H         2.472474         0.238647         0.629365
