19
Iteration:  2923
 O         4.320343         3.049075        -2.449312
 C         3.083500         2.364547        -2.466652
 C         1.956505         2.381691        -3.495485
 C         2.585228         1.108076        -3.132461
 C         1.863032         0.241745        -2.098792
 C         1.498345         1.173634        -0.934476
 C         2.604187         2.265556        -0.981251
 C         1.334880         0.497131         0.355211
 O         0.261508         0.290011         0.943031
 H         4.483850         3.441118        -3.343410
 H         1.031779         2.849595        -3.100430
 H         2.501833         2.939064        -4.293589
 H         2.936959         0.577728        -4.066656
 H         1.026440        -0.190143        -2.735400
 H         2.646735        -0.475096        -1.776881
 H         0.547326         1.689952        -1.104303
 H         2.166882         3.237645        -0.644263
 H         3.447460         2.066188        -0.226829
 H         2.303537         0.056108         0.776909
