19
Iteration:  3299charge 0 multiplicity 1
 O         4.264287         2.901105        -2.537300
 C         3.017904         2.374135        -2.293476
 C         1.961790         2.431873        -3.376788
 C         2.609168         1.101076        -3.080377
 C         1.889358         0.182147        -2.136549
 C         1.424328         1.197948        -1.033767
 C         2.532545         2.248560        -0.933491
 C         1.391664         0.572248         0.243683
 O         0.408314         0.370122         0.857416
 H         4.274762         3.843000        -2.648701
 H         0.923878         2.818594        -3.219249
 H         2.404764         2.759904        -4.340924
 H         3.424330         0.695071        -3.750522
 H         1.003548        -0.205670        -2.652278
 H         2.547477        -0.511490        -1.620113
 H         0.434596         1.585200        -1.198028
 H         2.138729         3.129850        -0.447020
 H         3.263213         1.886845        -0.172556
 H         2.415711         0.367079         0.584517
