19
Iteration:  1665
 O         4.457624         2.839390        -2.577582
 C         3.078815         2.345080        -2.413012
 C         1.981755         2.640279        -3.404474
 C         2.386986         1.182747        -3.098743
 C         1.655662         0.370807        -2.107415
 C         1.427017         1.273809        -0.936448
 C         2.569178         2.340612        -0.954553
 C         1.404234         0.511695         0.298690
 O         0.454395        -0.008762         0.853453
 H         5.035998         2.730035        -1.813450
 H         1.002996         2.859907        -2.884058
 H         2.157046         3.130508        -4.427152
 H         2.959498         0.646885        -3.878817
 H         0.745949        -0.076138        -2.606084
 H         2.474395        -0.329230        -1.773258
 H         0.450809         1.720315        -0.965801
 H         2.071858         3.296181        -0.796080
 H         3.429999         2.365515        -0.209579
 H         2.552326         0.380425         0.653591
