19
Iteration:   498
 O         4.483129         2.807436        -2.669311
 C         3.097598         2.409560        -2.390744
 C         2.093622         2.585776        -3.574481
 C         2.505273         1.187451        -3.109303
 C         1.765747         0.368891        -2.036134
 C         1.293654         1.367801        -0.820081
 C         2.465833         2.398569        -0.988389
 C         1.272037         0.490762         0.384809
 O         0.461465        -0.148061         0.973622
 H         4.365911         3.698037        -3.107801
 H         1.215836         2.952540        -3.237107
 H         2.476802         2.923288        -4.487639
 H         3.196093         0.529612        -3.730880
 H         0.817039        -0.088153        -2.395935
 H         2.479645        -0.343784        -1.691104
 H         0.326745         1.735575        -1.136441
 H         2.060840         3.379776        -0.766364
 H         3.203553         2.428892        -0.273761
 H         2.339104         0.513682         0.702163
