19
Iteration:  1991
 O         4.331804         2.910265        -2.491589
 C         3.000724         2.383765        -2.368024
 C         2.141192         2.622207        -3.605969
 C         2.657309         1.168974        -3.178173
 C         1.737726         0.259916        -2.268326
 C         1.299978         1.220307        -0.957550
 C         2.401282         2.341295        -1.005853
 C         1.383105         0.383421         0.337393
 O         0.519740         0.233048         1.162466
 H         4.786065         2.279132        -1.861887
 H         1.061509         2.695181        -3.399283
 H         2.514474         3.168976        -4.575836
 H         3.268203         0.591130        -3.816491
 H         0.799027         0.073398        -2.712291
 H         2.257217        -0.653696        -2.055758
 H         0.227090         1.676009        -1.040079
 H         1.937550         3.308551        -0.723078
 H         3.232832         2.174711        -0.217977
 H         2.354673        -0.154568         0.562341
