19
Iteration:  4200charge 0 multiplicity 1
 O         4.327012         2.918372        -2.505251
 C         3.074655         2.339189        -2.438890
 C         2.139188         2.503515        -3.614069
 C         2.673619         1.098901        -3.128860
 C         1.899414         0.217973        -2.191753
 C         1.306659         1.189195        -0.978929
 C         2.391727         2.448520        -1.074997
 C         1.346318         0.424124         0.429056
 O         0.370297         0.246569         1.186774
 H         4.326470         3.806604        -2.849464
 H         1.140523         2.997280        -3.522443
 H         2.599726         2.849586        -4.652343
 H         3.304005         0.819931        -3.915850
 H         0.971710        -0.156901        -2.628146
 H         2.411188        -0.564413        -1.655024
 H         0.317821         1.534552        -1.026914
 H         2.004921         3.424239        -0.836374
 H         3.038278         2.135233        -0.185934
 H         2.266724        -0.142251         0.690484
