19
Iteration:  4538charge 0 multiplicity 1
 O         4.419324         2.828155        -2.639899
 C         3.159300         2.374603        -2.326346
 C         1.984411         2.355277        -3.488624
 C         2.599864         1.081823        -3.021660
 C         1.850420         0.267126        -2.080474
 C         1.338859         1.374336        -0.958143
 C         2.393390         2.478751        -0.994966
 C         1.334378         0.558376         0.299731
 O         0.419575         0.133260         0.934910
 H         4.361613         3.826767        -2.632820
 H         0.973090         2.604304        -3.221807
 H         2.437274         2.766205        -4.464590
 H         3.417339         0.665635        -3.725011
 H         0.979301        -0.248877        -2.496436
 H         2.456112        -0.493588        -1.578188
 H         0.347228         1.711318        -1.327716
 H         1.768712         3.258148        -0.747285
 H         3.083845         2.310897        -0.154937
 H         2.346473         0.329746         0.802420
