19
Iteration:  1773charge 0 multiplicity 1
 O         4.357682         2.968271        -2.520853
 C         3.103782         2.436552        -2.343322
 C         1.986344         2.566715        -3.348643
 C         2.457570         1.172328        -3.167912
 C         1.728695         0.292793        -2.228936
 C         1.494676         1.197142        -1.026941
 C         2.629183         2.197598        -0.925225
 C         1.373647         0.340656         0.278952
 O         0.341199         0.266431         0.965351
 H         4.628040         3.061887        -3.424550
 H         1.074274         3.101495        -2.895484
 H         2.179425         3.136956        -4.236320
 H         3.136110         0.663510        -3.916044
 H         0.845414        -0.248911        -2.575448
 H         2.496025        -0.463755        -1.850312
 H         0.507383         1.739935        -1.056827
 H         2.301388         3.051315        -0.321922
 H         3.499164         1.796880        -0.261331
 H         2.376544        -0.032679         0.901475
