19
Iteration:   524
 O         4.343671         2.629523        -2.548982
 C         2.971770         2.480379        -2.319116
 C         2.008698         2.530868        -3.530676
 C         2.508101         1.185308        -3.056295
 C         1.808231         0.309197        -2.084149
 C         1.373080         1.400048        -0.930067
 C         2.432109         2.501130        -0.998168
 C         1.491696         0.516546         0.331423
 O         0.498482         0.001186         0.822522
 H         4.681249         3.360076        -1.979857
 H         0.897242         2.806120        -3.246838
 H         2.445710         2.913860        -4.492291
 H         3.076666         0.648069        -3.816602
 H         0.940694        -0.301011        -2.355105
 H         2.527272        -0.316123        -1.555438
 H         0.307432         1.665772        -1.195755
 H         2.108968         3.484514        -0.564131
 H         3.361478         2.243090        -0.384503
 H         2.570240         0.313767         0.582366
