19
Iteration:  4836charge 0 multiplicity 1
 O         4.340725         2.906193        -2.419662
 C         2.977242         2.381774        -2.317683
 C         2.077983         2.437936        -3.543643
 C         2.680131         1.064511        -3.132219
 C         1.937193         0.188712        -2.219244
 C         1.380017         1.100580        -1.127854
 C         2.267874         2.323253        -1.033266
 C         1.336110         0.464806         0.274670
 O         0.497590         0.520466         1.180895
 H         4.197031         3.878956        -2.379677
 H         0.998599         2.689939        -3.398855
 H         2.455545         2.744655        -4.582173
 H         3.456658         0.626722        -3.855355
 H         1.111993        -0.415615        -2.710923
 H         2.645102        -0.504541        -1.846839
 H         0.335134         1.454880        -1.232572
 H         1.640758         3.192699        -0.831074
 H         3.092984         2.199989        -0.261670
 H         2.295000        -0.221833         0.452978
