19
Iteration:   422charge 0 multiplicity 1
 O         4.260172         3.045743        -2.528541
 C         3.057145         2.408013        -2.436296
 C         1.989351         2.461447        -3.451159
 C         2.556342         1.123557        -3.038524
 C         1.756069         0.303597        -1.981167
 C         1.456320         1.372462        -0.920922
 C         2.697723         2.235352        -0.989774
 C         1.340693         0.533574         0.322336
 O         0.375373         0.057532         0.801740
 H         4.770893         2.905625        -3.347259
 H         0.990932         2.663915        -3.206151
 H         2.187643         2.838840        -4.403196
 H         3.053798         0.515926        -3.835926
 H         0.825135        -0.217097        -2.316710
 H         2.338005        -0.409052        -1.506977
 H         0.526283         1.945563        -1.100223
 H         2.572576         3.153940        -0.354144
 H         3.503167         1.673312        -0.574617
 H         2.330420         0.030871         0.551625
