19
Iteration:  4870charge 0 multiplicity 1
 O         4.309803         2.908294        -2.385958
 C         2.985290         2.372689        -2.403361
 C         2.078339         2.402226        -3.463930
 C         2.762070         1.061007        -3.065705
 C         1.860211         0.216556        -2.211239
 C         1.350856         1.146922        -1.094850
 C         2.248495         2.293128        -1.043737
 C         1.438571         0.502076         0.259907
 O         0.525129         0.500072         1.060929
 H         4.064066         3.813000        -2.504232
 H         1.011580         2.551883        -3.267463
 H         2.443898         2.693754        -4.445655
 H         3.449769         0.490164        -3.662722
 H         0.850441        -0.089051        -2.628661
 H         2.268169        -0.695286        -1.815664
 H         0.268390         1.458953        -1.336547
 H         1.625014         3.169820        -0.701736
 H         3.108424         2.273565        -0.324089
 H         2.391021        -0.124187         0.500406
