19
Iteration:  4036charge 0 multiplicity 1
 O         4.361341         2.982476        -2.631475
 C         3.080316         2.312187        -2.387484
 C         1.943720         2.305225        -3.348650
 C         2.612849         1.042621        -3.091975
 C         1.930352         0.205452        -2.061947
 C         1.380516         1.370870        -0.973498
 C         2.554990         2.364946        -0.949416
 C         1.353011         0.605503         0.317933
 O         0.323444         0.198546         0.809596
 H         4.305142         3.764672        -2.000082
 H         0.927591         2.817973        -3.119230
 H         2.274034         2.796394        -4.283517
 H         3.159871         0.618576        -3.999907
 H         0.921105        -0.289859        -2.205803
 H         2.509362        -0.542336        -1.459887
 H         0.364779         1.573668        -1.244762
 H         2.151768         3.354411        -0.781689
 H         3.248680         2.168313        -0.197326
 H         2.429766         0.360927         0.702268
