19
Iteration:   315charge 0 multiplicity 1
 O         4.210173         3.195648        -2.572606
 C         3.076549         2.366436        -2.395407
 C         2.007128         2.498527        -3.418975
 C         2.671814         1.078660        -3.156479
 C         1.829680         0.257487        -2.188953
 C         1.395860         1.184452        -1.034237
 C         2.634822         2.124651        -0.999841
 C         1.315148         0.414813         0.309556
 O         0.351804         0.349861         1.078818
 H         4.875413         2.928407        -1.879146
 H         1.108404         2.537181        -2.981697
 H         2.253632         2.876787        -4.319978
 H         3.228077         0.590836        -3.989349
 H         0.928397        -0.254010        -2.660047
 H         2.462302        -0.511781        -1.664362
 H         0.408500         1.702797        -1.248212
 H         2.465048         3.070504        -0.429971
 H         3.443256         1.532036        -0.462646
 H         2.171784        -0.277972         0.476484
