19
Iteration:  2921charge 0 multiplicity 1
 O         4.315785         3.047332        -2.439004
 C         3.087244         2.364005        -2.448961
 C         1.949443         2.381452        -3.495169
 C         2.579227         1.083268        -3.133530
 C         1.865318         0.251121        -2.093476
 C         1.492828         1.188066        -0.958761
 C         2.618595         2.263699        -0.987594
 C         1.338565         0.509595         0.358354
 O         0.273871         0.282852         0.931906
 H         4.384109         3.399054        -3.332595
 H         1.058453         2.811215        -3.081611
 H         2.459760         2.999045        -4.280863
 H         2.953399         0.541572        -4.070555
 H         1.072245        -0.146285        -2.734803
 H         2.568043        -0.505230        -1.738427
 H         0.506109         1.737143        -1.131138
 H         2.145992         3.279644        -0.622668
 H         3.446732         2.038759        -0.217991
 H         2.308005         0.073394         0.771098
