19
Iteration:  1983charge 0 multiplicity 1
 O         4.361083         2.841558        -2.518019
 C         3.017555         2.413970        -2.342940
 C         2.052604         2.552561        -3.562449
 C         2.646012         1.190775        -3.118330
 C         1.762246         0.319195        -2.311100
 C         1.267678         1.177437        -0.957850
 C         2.379914         2.319968        -0.991420
 C         1.404281         0.416763         0.291982
 O         0.520552         0.253708         1.151514
 H         5.007244         2.624225        -1.815496
 H         0.961990         2.744976        -3.409086
 H         2.535353         3.252621        -4.324364
 H         3.486869         0.694442        -3.681871
 H         0.917379         0.050104        -2.993226
 H         2.192118        -0.623287        -1.937884
 H         0.277628         1.579536        -1.125449
 H         2.035329         3.286090        -0.719810
 H         3.098395         2.166557        -0.252003
 H         2.533365         0.017739         0.364064
