19
Iteration:   254charge 0 multiplicity 1
 O         4.300544         3.009209        -2.320558
 C         3.011806         2.410842        -2.348541
 C         2.011905         2.459769        -3.610801
 C         2.648688         1.172939        -3.121164
 C         1.833542         0.247987        -2.271925
 C         1.339652         1.072557        -1.065717
 C         2.430910         2.318561        -0.949958
 C         1.334867         0.311958         0.234245
 O         0.578383         0.467717         1.172095
 H         4.802009         2.561343        -3.028476
 H         0.861891         2.656670        -3.496370
 H         2.266804         2.991270        -4.586923
 H         3.340339         0.790935        -3.880264
 H         1.001846        -0.096217        -2.842416
 H         2.395348        -0.640632        -1.962477
 H         0.344381         1.430806        -1.206746
 H         1.799438         3.150581        -0.680961
 H         3.223997         2.109811        -0.212572
 H         2.086463        -0.500346         0.230165
