19
Iteration:  4971
 O         4.287954         2.895656        -2.535828
 C         2.971209         2.365698        -2.343845
 C         2.018609         2.438009        -3.449957
 C         2.780374         1.064865        -3.043747
 C         1.863767         0.155021        -2.113115
 C         1.392767         1.171321        -1.050990
 C         2.408266         2.390005        -0.996035
 C         1.402339         0.545782         0.267473
 O         0.405802         0.366725         0.963694
 H         4.198238         3.854874        -2.811319
 H         0.988578         2.584644        -3.277159
 H         2.333571         2.692083        -4.466351
 H         3.508870         0.449261        -3.597319
 H         1.042809        -0.190698        -2.872316
 H         2.406903        -0.508900        -1.494454
 H         0.275400         1.451473        -0.957948
 H         2.052712         3.477735        -0.813902
 H         3.195204         2.118501        -0.236149
 H         2.366965         0.309163         0.775093
