19
Iteration:  1103charge 0 multiplicity 1
 O         4.331098         2.965812        -2.525575
 C         3.018330         2.446370        -2.414711
 C         1.964629         2.640479        -3.438875
 C         2.581699         1.140349        -3.114159
 C         1.760990         0.267523        -2.085341
 C         1.605485         1.114547        -0.936923
 C         2.630714         2.250371        -0.952130
 C         1.410278         0.321721         0.347913
 O         0.266280         0.253527         0.865472
 H         4.310976         3.569858        -3.255182
 H         0.944426         2.794796        -3.041042
 H         2.279289         3.286038        -4.351177
 H         2.972391         0.693567        -4.011917
 H         0.652293        -0.022014        -2.348561
 H         2.305463        -0.604073        -1.872951
 H         0.623303         1.691801        -1.021492
 H         2.383944         3.182996        -0.373853
 H         3.541588         1.948177        -0.506990
 H         2.279187        -0.223455         0.807253
