19
Iteration:  4657
 O         4.281879         2.886295        -2.684331
 C         3.088977         2.348813        -2.377545
 C         1.981699         2.435311        -3.369706
 C         2.723212         1.126547        -3.045172
 C         1.926815         0.179428        -2.043078
 C         1.377321         1.198209        -0.997327
 C         2.475430         2.324409        -0.918106
 C         1.391922         0.569914         0.319214
 O         0.309162         0.359017         0.855083
 H         4.156802         3.831940        -2.712769
 H         0.962110         2.484294        -3.018871
 H         2.110327         2.890069        -4.358471
 H         3.383602         0.668898        -3.675409
 H         1.208611        -0.368822        -2.600167
 H         2.553979        -0.605007        -1.708360
 H         0.372431         1.613933        -1.136084
 H         2.040674         3.327661        -0.555474
 H         3.326401         2.047780        -0.196539
 H         2.358937        -0.000467         0.734679
