19
Iteration:  3539charge 0 multiplicity 1
 O         4.366488         2.928294        -2.549297
 C         3.019822         2.374322        -2.405439
 C         2.075739         2.436712        -3.548311
 C         2.697338         1.067419        -3.070150
 C         1.783412         0.289218        -2.145742
 C         1.378667         1.290550        -0.890383
 C         2.480925         2.387217        -0.968525
 C         1.369889         0.522042         0.375157
 O         0.343564         0.138169         0.947157
 H         4.101820         3.726403        -2.990115
 H         0.967347         2.683020        -3.340829
 H         2.418111         2.567585        -4.585570
 H         3.370131         0.711516        -3.820775
 H         0.810106        -0.134918        -2.488163
 H         2.393786        -0.480594        -1.730108
 H         0.459102         1.637704        -1.151356
 H         2.198618         3.359987        -0.559472
 H         3.434960         2.000338        -0.400467
 H         2.332402         0.455496         0.875892
