19
Iteration:   816
 O         4.401756         2.959410        -2.512935
 C         3.097315         2.287816        -2.389236
 C         2.027100         2.668281        -3.499413
 C         2.501927         1.141575        -3.140031
 C         1.737047         0.300808        -2.162124
 C         1.473072         1.189418        -0.928217
 C         2.498826         2.259632        -0.918897
 C         1.401022         0.320691         0.261925
 O         0.400062         0.262970         1.016250
 H         4.143728         3.908817        -2.736111
 H         1.059371         2.849729        -3.299461
 H         2.336246         2.994005        -4.498090
 H         2.801079         0.736939        -4.130236
 H         0.773098        -0.117078        -2.596784
 H         2.391652        -0.537699        -1.834502
 H         0.491689         1.567194        -1.058838
 H         2.131342         3.246725        -0.591914
 H         3.400325         2.016597        -0.227646
 H         2.329150        -0.239228         0.569631
