19
Iteration:  1739charge 0 multiplicity 1
 O         4.283607         3.009537        -2.464099
 C         3.098017         2.337857        -2.393784
 C         1.945414         2.549488        -3.392978
 C         2.568993         1.132227        -3.115412
 C         1.630168         0.378040        -2.132633
 C         1.483301         1.339649        -0.962351
 C         2.688737         2.233886        -0.985163
 C         1.401000         0.370229         0.255834
 O         0.360544         0.145030         0.907955
 H         4.897080         2.663208        -3.141676
 H         1.055337         2.876350        -2.904321
 H         2.256233         3.080191        -4.296673
 H         3.226454         0.468366        -3.779798
 H         0.677364         0.016750        -2.477097
 H         2.199117        -0.560802        -1.858986
 H         0.530219         1.963372        -0.903070
 H         2.479178         3.252131        -0.639000
 H         3.610245         1.804732        -0.494261
 H         2.483988        -0.125207         0.444809
