19
Iteration:  3018charge 0 multiplicity 1
 O         4.212428         3.130431        -2.297629
 C         3.109055         2.308190        -2.385662
 C         2.000254         2.380983        -3.558379
 C         2.651367         1.084951        -3.146883
 C         1.835533         0.138953        -2.300886
 C         1.405309         1.025172        -1.076316
 C         2.526964         2.147958        -0.918645
 C         1.384821         0.467317         0.279186
 O         0.428977         0.604698         1.062482
 H         4.162606         3.771425        -2.993340
 H         1.101347         2.820609        -3.061095
 H         2.296944         3.056577        -4.410584
 H         3.261341         0.674085        -4.039821
 H         0.910254        -0.250289        -2.746722
 H         2.424947        -0.678056        -1.896790
 H         0.395470         1.518399        -1.351576
 H         2.161220         3.088354        -0.365674
 H         3.316650         1.826577        -0.290503
 H         2.264146        -0.215932         0.551932
