19
Iteration:  4122
 O         4.407275         2.982453        -2.520095
 C         3.099460         2.348923        -2.390075
 C         2.058865         2.381706        -3.511645
 C         2.649912         1.043077        -3.008283
 C         1.773353         0.248864        -2.149000
 C         1.290171         1.266584        -0.983432
 C         2.456812         2.406971        -1.013866
 C         1.389995         0.577511         0.354424
 O         0.402973         0.170843         0.947963
 H         4.236047         3.928272        -2.750946
 H         1.004834         2.573587        -3.243838
 H         2.321556         2.574987        -4.567717
 H         3.144936         0.560669        -3.845959
 H         0.905695        -0.276961        -2.527031
 H         2.379093        -0.504475        -1.720235
 H         0.302419         1.701901        -1.156654
 H         2.018582         3.345398        -0.734823
 H         3.217628         2.027639        -0.302609
 H         2.404512         0.335438         0.760253
