19
Iteration:    53charge 0 multiplicity 1
 O         4.376268         2.885822        -2.280049
 C         3.000889         2.346067        -2.427240
 C         1.977284         2.601843        -3.581972
 C         2.591158         1.160990        -3.204818
 C         1.936515         0.126953        -2.220330
 C         1.391252         1.103783        -1.044499
 C         2.273293         2.429198        -1.122592
 C         1.396559         0.474445         0.365255
 O         0.483147         0.334302         1.185163
 H         4.732259         2.816607        -3.159702
 H         0.947249         2.834356        -3.346805
 H         2.507896         2.995206        -4.418067
 H         3.297263         0.877128        -3.945570
 H         1.196257        -0.598227        -2.581339
 H         2.732319        -0.513090        -1.841218
 H         0.231307         1.303732        -1.188022
 H         1.817993         3.429670        -1.072017
 H         2.990485         2.494359        -0.313085
 H         2.508507        -0.072340         0.567781
