19
Iteration:  4820
 O         4.240269         2.866268        -2.436652
 C         3.003057         2.422215        -2.483459
 C         2.121084         2.511734        -3.669138
 C         2.744039         1.181304        -3.130044
 C         1.948362         0.177854        -2.133247
 C         1.264415         1.063638        -1.015808
 C         2.338217         2.275572        -0.993858
 C         1.329379         0.365862         0.318968
 O         0.485481         0.551276         1.170932
 H         4.230704         3.872613        -2.429612
 H         1.061251         2.650460        -3.508906
 H         2.737543         3.029032        -4.358324
 H         3.497616         0.729832        -3.700240
 H         1.211986        -0.554315        -2.505038
 H         2.557840        -0.735011        -1.750768
 H         0.300960         1.293874        -1.448209
 H         1.879638         3.233762        -0.659201
 H         3.187408         2.033055        -0.351288
 H         2.254305        -0.198977         0.580827
