19
Iteration:  4297
 O         4.262007         2.997199        -2.653240
 C         3.020031         2.439285        -2.382644
 C         2.134349         2.483241        -3.595431
 C         2.692140         1.191894        -3.137202
 C         1.920186         0.221696        -2.167507
 C         1.381346         1.044822        -1.007832
 C         2.537239         2.211147        -0.931609
 C         1.240254         0.282240         0.413263
 O         0.308191         0.502709         1.168548
 H         4.257423         3.925300        -2.378560
 H         1.125019         2.765546        -3.566898
 H         2.564525         2.778238        -4.559154
 H         3.393243         0.642711        -3.769558
 H         1.165495        -0.369923        -2.657445
 H         2.787495        -0.332314        -1.765168
 H         0.472734         1.398545        -1.399515
 H         2.059740         3.084658        -0.552660
 H         3.436162         2.094561        -0.273056
 H         2.017518        -0.464537         0.720542
