19
Iteration:  3622charge 0 multiplicity 1
 O         4.358747         2.918394        -2.587095
 C         3.113621         2.398747        -2.345480
 C         1.869386         2.358796        -3.416668
 C         2.681397         1.163406        -2.995673
 C         1.859384         0.186800        -2.132015
 C         1.424745         1.183800        -1.048884
 C         2.515207         2.319030        -0.944594
 C         1.351437         0.516539         0.222022
 O         0.382565         0.381843         0.967015
 H         4.230002         3.788212        -2.075364
 H         0.855068         2.461102        -3.112377
 H         2.106750         2.725027        -4.411219
 H         3.323137         0.784657        -3.746112
 H         1.066101        -0.288668        -2.708530
 H         2.507503        -0.676404        -1.737183
 H         0.497207         1.734079        -1.601162
 H         1.818273         3.122158        -0.550548
 H         3.180920         2.017985        -0.232850
 H         2.293376         0.011766         0.363278
