19
Iteration:   647
 O         4.319139         3.112230        -2.376887
 C         3.103568         2.278936        -2.431445
 C         1.986688         2.524766        -3.352576
 C         2.493045         1.106171        -3.233839
 C         1.695733         0.224805        -2.223529
 C         1.566509         1.174927        -0.998810
 C         2.577139         2.284620        -0.932876
 C         1.428109         0.349275         0.299312
 O         0.388655         0.348981         0.984364
 H         4.609556         3.244796        -3.306851
 H         0.856486         2.828814        -3.070871
 H         2.223920         3.054990        -4.348023
 H         3.088457         0.618934        -4.045777
 H         0.756301        -0.059562        -2.638123
 H         2.208010        -0.718766        -2.040988
 H         0.590586         1.667248        -0.939503
 H         2.102939         3.251621        -0.728210
 H         3.335333         1.872857        -0.287596
 H         2.214417        -0.448212         0.513594
