19
Iteration:  3274charge 0 multiplicity 1
 O         4.327374         2.901373        -2.519723
 C         3.073184         2.377958        -2.402780
 C         1.959169         2.520342        -3.521524
 C         2.623890         1.161454        -3.197611
 C         1.952416         0.215865        -2.162427
 C         1.493981         1.148348        -0.976760
 C         2.484475         2.301640        -0.990431
 C         1.307941         0.376686         0.356908
 O         0.314176         0.417828         1.055157
 H         4.320221         3.836675        -2.310333
 H         0.936854         2.585990        -3.133956
 H         2.067369         2.935298        -4.496810
 H         3.432312         0.640173        -3.893546
 H         1.102745        -0.395166        -2.571605
 H         2.757653        -0.373575        -1.693593
 H         0.500446         1.520745        -1.175801
 H         2.016977         3.158600        -0.607371
 H         3.203696         1.986452        -0.261457
 H         2.171782        -0.220477         0.644294
