19
Iteration:   290
 O         4.185365         3.196535        -2.586922
 C         3.011420         2.448398        -2.292287
 C         2.112551         2.460385        -3.570087
 C         2.700936         1.127167        -3.111977
 C         1.737776         0.212745        -2.307196
 C         1.429828         1.031790        -0.972159
 C         2.592751         2.203860        -0.815890
 C         1.349320         0.319865         0.339788
 O         0.402964         0.448594         1.078999
 H         4.842737         2.553158        -2.862261
 H         0.949604         2.517427        -3.492216
 H         2.794923         2.988883        -4.344865
 H         3.271209         0.598442        -3.865944
 H         0.746011         0.148165        -2.810147
 H         2.131385        -0.775086        -2.174966
 H         0.445384         1.476777        -1.150400
 H         2.234321         3.194499        -0.366064
 H         3.387707         1.892572        -0.140711
 H         2.080566        -0.541694         0.431649
