19
Iteration:  4940
 O         4.353588         2.995237        -2.519195
 C         3.009736         2.404887        -2.369890
 C         2.094335         2.361893        -3.606322
 C         2.734870         1.001418        -3.107766
 C         1.787916         0.241008        -2.112237
 C         1.406485         1.186547        -0.989362
 C         2.374257         2.445230        -0.976526
 C         1.310079         0.427667         0.266352
 O         0.446824         0.352413         1.104914
 H         4.341468         3.948554        -2.553957
 H         1.021829         2.503629        -3.490692
 H         2.483111         2.676891        -4.605292
 H         3.519796         0.424223        -3.713401
 H         0.975805        -0.348177        -2.720804
 H         2.246720        -0.766727        -1.715136
 H         0.383792         1.605844        -1.110342
 H         1.844895         3.418069        -0.778012
 H         3.100282         2.347331        -0.158546
 H         2.184333        -0.185616         0.561226
