19
Iteration:  3520charge 0 multiplicity 1
 O         4.329985         2.945713        -2.581349
 C         3.061683         2.335889        -2.287123
 C         2.064021         2.375972        -3.432480
 C         2.599321         0.994498        -3.023080
 C         1.757015         0.280487        -2.075379
 C         1.413440         1.339282        -1.040034
 C         2.545481         2.413795        -0.950118
 C         1.384915         0.607840         0.276858
 O         0.410921         0.123158         0.868545
 H         4.184951         3.871131        -2.744191
 H         0.941588         2.490380        -3.168805
 H         2.350985         3.016815        -4.250727
 H         3.249783         0.345600        -3.704767
 H         0.836507        -0.135570        -2.529192
 H         2.223864        -0.645005        -1.661651
 H         0.431368         1.894162        -1.281106
 H         2.093848         3.378217        -0.972938
 H         2.995173         2.328247        -0.036769
 H         2.449224         0.179268         0.461602
