19
Iteration:  4664
 O         4.275063         2.900160        -2.670319
 C         3.040779         2.315163        -2.365168
 C         1.987917         2.493295        -3.426600
 C         2.722933         1.081248        -2.988583
 C         1.969708         0.200377        -2.076452
 C         1.462254         1.214927        -0.974585
 C         2.456654         2.299783        -0.946410
 C         1.360519         0.492747         0.308087
 O         0.294928         0.387279         0.887206
 H         4.201565         3.853463        -2.520044
 H         0.991781         2.547717        -3.055986
 H         1.942876         2.956607        -4.421414
 H         3.235276         0.722613        -3.988466
 H         1.142871        -0.343390        -2.611734
 H         2.517617        -0.598330        -1.388323
 H         0.420298         1.430839        -1.223564
 H         2.350014         3.416308        -0.792173
 H         3.253902         2.123095        -0.243121
 H         2.330110         0.126615         0.737739
