19
Iteration:  2691
 O         4.372154         2.895259        -2.615437
 C         3.094580         2.357664        -2.368814
 C         1.995088         2.347753        -3.453761
 C         2.565640         1.021776        -2.983881
 C         1.800360         0.296444        -2.006700
 C         1.289773         1.427749        -0.927866
 C         2.610817         2.473212        -0.914415
 C         1.350913         0.522914         0.178852
 O         0.402670         0.091367         0.818891
 H         4.456061         3.843804        -2.661460
 H         1.086791         2.759549        -3.144315
 H         2.260471         2.760691        -4.406831
 H         3.105717         0.328074        -3.584461
 H         0.828649        -0.063007        -2.518883
 H         2.377095        -0.474515        -1.414366
 H         0.269862         1.841047        -0.996664
 H         2.497819         3.522870        -0.647140
 H         3.345437         2.051860        -0.299440
 H         2.405496         0.269778         0.461626
