19
Iteration:  3197charge 0 multiplicity 1
 O         4.287251         3.050018        -2.332032
 C         2.975394         2.381048        -2.320971
 C         2.009157         2.363496        -3.434471
 C         2.710041         1.050642        -3.133189
 C         1.837870         0.112466        -2.329220
 C         1.297290         1.124308        -1.081590
 C         2.511656         2.201374        -0.951558
 C         1.306743         0.399490         0.166990
 O         0.567267         0.667103         1.076381
 H         3.932327         3.947482        -2.645704
 H         1.076686         2.436395        -2.968364
 H         2.068320         2.870764        -4.441744
 H         3.690250         0.828308        -3.702702
 H         0.976153        -0.395364        -2.832466
 H         2.400983        -0.691903        -1.897181
 H         0.376085         1.595081        -1.360091
 H         2.075693         3.009987        -0.477527
 H         3.312222         1.759194        -0.393207
 H         2.162954        -0.407318         0.159341
