19
Iteration:   640charge 0 multiplicity 1
 O         4.293961         3.063156        -2.369724
 C         3.081193         2.333902        -2.373061
 C         1.938473         2.479280        -3.401301
 C         2.510689         1.091825        -3.206880
 C         1.711479         0.312702        -2.209303
 C         1.544009         1.198492        -0.988296
 C         2.593561         2.251355        -0.955514
 C         1.423416         0.303315         0.271835
 O         0.405794         0.338989         0.972355
 H         4.633090         3.283552        -3.290767
 H         1.059218         2.823744        -3.108498
 H         2.278015         2.750299        -4.347420
 H         3.113958         0.689780        -4.026396
 H         0.685730         0.146834        -2.657604
 H         2.207700        -0.712416        -2.019741
 H         0.622816         1.759761        -1.016776
 H         2.284571         3.263989        -0.682581
 H         3.556889         2.328476        -0.266618
 H         2.243230        -0.409866         0.467014
