19
Iteration:  2697
 O         4.423482         2.874272        -2.618116
 C         3.050985         2.396522        -2.355730
 C         2.007610         2.346205        -3.486137
 C         2.599193         1.077041        -2.943338
 C         1.736903         0.299800        -2.004711
 C         1.332438         1.437850        -0.896210
 C         2.597639         2.432848        -0.965663
 C         1.361239         0.533400         0.194680
 O         0.391966         0.070126         0.824212
 H         4.234308         3.845479        -2.813015
 H         0.896656         2.555475        -3.223104
 H         2.331153         2.810578        -4.473891
 H         3.202560         0.452827        -3.708334
 H         0.870152        -0.128530        -2.378138
 H         2.253859        -0.499614        -1.476652
 H         0.310583         1.790728        -1.086904
 H         2.357245         3.497166        -0.614100
 H         3.355527         1.983342        -0.184549
 H         2.428699         0.295548         0.472735
