19
Iteration:  2607charge 0 multiplicity 1
 O         4.328668         2.931352        -2.577333
 C         3.081066         2.343109        -2.359573
 C         2.035053         2.538697        -3.464674
 C         2.571010         1.101707        -3.160287
 C         1.915590         0.184761        -2.158632
 C         1.442484         1.215653        -1.010244
 C         2.502776         2.272009        -0.932272
 C         1.309768         0.508409         0.386223
 O         0.313117         0.306842         0.982381
 H         4.243705         3.865847        -2.875875
 H         1.006786         2.834635        -3.141168
 H         2.406146         2.865161        -4.455082
 H         3.091325         0.649109        -3.965017
 H         1.112935        -0.496014        -2.496247
 H         2.672515        -0.464733        -1.694755
 H         0.426181         1.621303        -1.096158
 H         2.277689         3.275374        -0.564472
 H         3.414684         1.853044        -0.313315
 H         2.298946         0.217421         0.845975
