19
Iteration:   971charge 0 multiplicity 1
 O         4.402178         2.817840        -2.521008
 C         3.065331         2.443196        -2.382640
 C         2.016012         2.556170        -3.520020
 C         2.473305         1.169987        -3.160896
 C         1.724914         0.292385        -2.127786
 C         1.390697         1.383726        -0.825748
 C         2.549464         2.367347        -0.879031
 C         1.402562         0.426037         0.257883
 O         0.416802         0.034458         0.918436
 H         4.556287         3.579732        -3.051809
 H         0.978066         2.940416        -3.258882
 H         2.345495         3.064540        -4.482169
 H         3.293424         0.879519        -3.753045
 H         0.858881        -0.408183        -2.536327
 H         2.404443        -0.504233        -1.853297
 H         0.419465         1.965026        -1.006138
 H         2.259391         3.338412        -0.393886
 H         3.395931         1.820476        -0.499620
 H         2.432622         0.016693         0.470482
