19
Iteration:  3479
 O         4.394014         2.826359        -2.584564
 C         3.006168         2.457773        -2.435195
 C         2.049194         2.409317        -3.615468
 C         2.659132         1.157418        -3.020270
 C         1.742855         0.335162        -2.052289
 C         1.434048         1.320844        -0.909347
 C         2.487907         2.435535        -0.968464
 C         1.330838         0.524645         0.389162
 O         0.359336         0.028282         0.934841
 H         4.491926         3.807201        -2.569209
 H         0.983591         2.475183        -3.656125
 H         2.538609         2.695522        -4.498906
 H         3.534452         0.626684        -3.533814
 H         0.822883        -0.164906        -2.336984
 H         2.420388        -0.514674        -1.716431
 H         0.387208         1.744731        -1.254026
 H         1.964220         3.399114        -0.606994
 H         3.458692         2.328183        -0.457078
 H         2.336904         0.236185         0.699127
