19
Iteration:  3515
 O         4.360113         2.942520        -2.595692
 C         3.071065         2.318544        -2.295376
 C         2.036172         2.399835        -3.395838
 C         2.648184         0.982571        -3.012285
 C         1.708098         0.288499        -2.057363
 C         1.394196         1.350261        -1.012460
 C         2.510790         2.394444        -0.958637
 C         1.380240         0.584088         0.250349
 O         0.443086         0.140264         0.835137
 H         4.025847         3.888602        -2.654229
 H         1.000018         2.425181        -3.181590
 H         2.348277         2.901244        -4.348330
 H         3.266375         0.463160        -3.672765
 H         0.720665        -0.095844        -2.370815
 H         2.334468        -0.483620        -1.592926
 H         0.509343         1.788349        -1.382643
 H         1.969156         3.398678        -1.024715
 H         3.125888         2.347116         0.052223
 H         2.387561         0.221322         0.452435
