19
Iteration:  1804
 O         4.304534         2.791881        -2.576694
 C         3.005646         2.431715        -2.374017
 C         1.920901         2.720948        -3.504575
 C         2.575835         1.253943        -3.197968
 C         1.925646         0.287344        -2.316713
 C         1.515569         1.146515        -0.963091
 C         2.629832         2.174530        -0.858755
 C         1.306309         0.303991         0.407970
 O         0.310825         0.307277         1.070491
 H         4.356243         3.780143        -2.731089
 H         0.941859         3.133730        -3.232533
 H         2.413832         3.182583        -4.323640
 H         3.305199         0.918667        -4.028374
 H         1.014993        -0.099298        -2.730879
 H         2.605134        -0.507111        -1.960304
 H         0.497865         1.623571        -1.192424
 H         2.420131         3.009145        -0.163524
 H         3.370456         1.568800        -0.384242
 H         2.182629        -0.024824         0.865354
