19
Iteration:  1294
 O         4.255153         2.930584        -2.384234
 C         2.988591         2.478870        -2.369197
 C         2.033132         2.539480        -3.547185
 C         2.611608         1.265648        -3.169997
 C         1.694853         0.286779        -2.267164
 C         1.517667         1.115102        -0.965202
 C         2.537803         2.250432        -0.934829
 C         1.470745         0.329492         0.314871
 O         0.413020         0.318900         1.043104
 H         4.646995         2.510560        -3.194158
 H         1.097056         2.953000        -3.154070
 H         2.544164         2.999504        -4.406039
 H         3.101109         0.814782        -4.015782
 H         0.672687         0.222907        -2.791744
 H         2.038109        -0.830707        -2.086604
 H         0.503490         1.395807        -0.911626
 H         2.107205         3.123132        -0.451842
 H         3.504887         1.904519        -0.460176
 H         2.356219        -0.260528         0.537759
