19
Iteration:  2591
 O         4.383021         2.986957        -2.553921
 C         3.070052         2.327970        -2.393982
 C         1.961975         2.439573        -3.377728
 C         2.574271         1.089293        -3.051289
 C         1.871142         0.268293        -2.028787
 C         1.357355         1.172812        -1.024537
 C         2.611985         2.257342        -1.028715
 C         1.322554         0.468355         0.241363
 O         0.374600         0.375157         0.935771
 H         4.093024         3.936162        -2.611256
 H         0.998672         2.735866        -2.986109
 H         2.288034         2.882398        -4.298335
 H         3.262548         0.676648        -3.856757
 H         0.909426        -0.287161        -2.489746
 H         2.539516        -0.599200        -1.571184
 H         0.425510         1.613413        -1.419963
 H         2.031075         3.130336        -0.685345
 H         3.318868         2.023158        -0.261517
 H         2.299038        -0.180807         0.365912
