19
Iteration:  3815charge 0 multiplicity 1
 O         4.340484         2.893142        -2.489887
 C         3.005184         2.379516        -2.298023
 C         2.056386         2.393514        -3.492164
 C         2.723816         1.128065        -3.049655
 C         1.782685         0.226940        -2.167813
 C         1.253647         1.148583        -1.065286
 C         2.375936         2.328531        -0.981780
 C         1.417861         0.416302         0.198408
 O         0.510749         0.471152         1.023918
 H         4.235846         3.900036        -2.607295
 H         0.964945         2.444339        -3.450231
 H         2.432831         2.814790        -4.372565
 H         3.619098         0.748664        -3.491514
 H         1.073585        -0.348010        -2.848022
 H         2.521995        -0.431688        -1.673252
 H         0.290648         1.521384        -0.991403
 H         1.790270         3.191472        -0.730340
 H         3.165507         1.991969        -0.268562
 H         2.417995         0.089310         0.498746
