19
Iteration:  2191charge 0 multiplicity 1
 O         4.237639         3.122472        -2.575522
 C         3.106698         2.330106        -2.469640
 C         1.982940         2.430187        -3.448353
 C         2.620118         1.105943        -3.170597
 C         1.877687         0.256970        -2.054742
 C         1.511176         1.261560        -0.876667
 C         2.687204         2.238828        -0.935148
 C         1.293164         0.486256         0.393098
 O         0.196662         0.238263         0.898682
 H         4.935893         2.863231        -3.191287
 H         1.017399         2.379290        -3.018549
 H         2.147074         2.993421        -4.407835
 H         3.323727         0.682335        -3.880096
 H         0.986953        -0.081288        -2.481470
 H         2.394500        -0.641488        -1.805609
 H         0.554365         1.632347        -1.250461
 H         2.429891         3.212066        -0.518317
 H         3.577427         1.718644        -0.382684
 H         2.240841         0.166813         0.842626
