19
Iteration:  1444charge 0 multiplicity 1
 O         4.243693         2.884041        -2.596034
 C         2.993886         2.368274        -2.357549
 C         1.927295         2.620121        -3.329293
 C         2.592015         1.156997        -3.146599
 C         1.811374         0.338937        -2.273741
 C         1.442306         1.282756        -0.996114
 C         2.686135         2.186741        -0.890045
 C         1.349255         0.353998         0.226466
 O         0.417850         0.287141         1.009996
 H         4.469703         3.461092        -1.856902
 H         0.908087         2.709444        -3.021828
 H         2.247524         3.024751        -4.217562
 H         3.319398         0.881341        -3.864657
 H         0.927551        -0.298154        -2.561568
 H         2.526501        -0.464025        -1.857163
 H         0.552610         1.926135        -1.137344
 H         2.644012         3.134196        -0.353847
 H         3.448494         1.538826        -0.381849
 H         2.254540        -0.338456         0.158428
