19
Iteration:  1410
 O         4.349194         3.058773        -2.623668
 C         3.082382         2.424188        -2.387327
 C         2.033618         2.618666        -3.380082
 C         2.509886         1.144793        -3.168436
 C         1.707472         0.292466        -2.330214
 C         1.412461         1.121953        -0.956688
 C         2.627033         2.143391        -0.939890
 C         1.374888         0.345285         0.344280
 O         0.374532         0.290918         1.104569
 H         4.685973         3.439523        -1.822824
 H         1.082857         3.012805        -3.204238
 H         2.286217         2.886554        -4.355195
 H         3.139302         0.807536        -4.005252
 H         0.840868        -0.138982        -2.900985
 H         2.451389        -0.557041        -2.086332
 H         0.477991         1.715436        -1.183194
 H         2.346741         2.964978        -0.254502
 H         3.377732         1.478517        -0.436723
 H         2.272004        -0.280939         0.705868
