19
Iteration:   318charge 0 multiplicity 1
 O         4.209401         3.171017        -2.564381
 C         3.076962         2.380197        -2.418892
 C         2.004520         2.488403        -3.397276
 C         2.679890         1.097835        -3.173686
 C         1.842729         0.235993        -2.171059
 C         1.369035         1.194833        -1.032299
 C         2.646810         2.135996        -0.986672
 C         1.327101         0.438611         0.315314
 O         0.352676         0.339907         1.061296
 H         4.767287         2.968506        -1.816433
 H         1.014443         2.532478        -2.936402
 H         2.263488         2.976731        -4.351793
 H         3.127266         0.547342        -4.019878
 H         0.993668        -0.279860        -2.602452
 H         2.519638        -0.539775        -1.680336
 H         0.420703         1.694708        -1.249735
 H         2.535566         3.110518        -0.533456
 H         3.426158         1.469814        -0.506389
 H         2.083817        -0.294893         0.450000
