19
Iteration:  4222charge 0 multiplicity 1
 O         4.332792         2.917139        -2.436372
 C         3.013672         2.405125        -2.378851
 C         2.063658         2.447019        -3.542611
 C         2.640298         1.105603        -3.097565
 C         1.813716         0.221556        -2.148566
 C         1.409280         1.143839        -1.020165
 C         2.385850         2.305376        -0.972537
 C         1.383910         0.516555         0.279729
 O         0.453315         0.359651         1.036299
 H         4.489482         3.663930        -3.069168
 H         0.941640         2.470474        -3.506359
 H         2.380788         2.935096        -4.528386
 H         3.383487         0.581757        -3.719964
 H         0.955900        -0.284391        -2.640959
 H         2.424236        -0.514813        -1.625530
 H         0.440740         1.541717        -1.256656
 H         1.802963         3.174733        -0.668851
 H         3.269076         2.187553        -0.229976
 H         2.327701         0.082108         0.554429
