19
Iteration:  3999
 O         4.322444         2.939647        -2.700976
 C         2.952348         2.469391        -2.399871
 C         2.015676         2.412551        -3.552524
 C         2.690340         1.121797        -3.056141
 C         1.905690         0.216486        -2.055231
 C         1.496961         1.196006        -0.912387
 C         2.587505         2.310310        -0.923460
 C         1.270681         0.604497         0.487272
 O         0.222646         0.161992         0.906106
 H         4.359371         3.916939        -2.443640
 H         1.044054         2.731315        -3.476594
 H         2.610368         2.652269        -4.437492
 H         3.344260         0.760520        -3.865279
 H         1.098450        -0.076630        -2.699652
 H         2.475105        -0.627112        -1.851898
 H         0.484506         1.613949        -1.240852
 H         2.577106         3.318730        -0.494763
 H         3.537359         1.836044        -0.554268
 H         2.222889         0.276395         1.060357
