19
Iteration:  4432charge 0 multiplicity 1
 O         4.309044         2.954119        -2.574610
 C         3.091297         2.330828        -2.339900
 C         2.055313         2.365231        -3.485317
 C         2.683425         1.082515        -3.061219
 C         1.800102         0.197776        -2.111570
 C         1.391463         1.281688        -1.019020
 C         2.462472         2.392981        -0.929629
 C         1.349103         0.431630         0.235749
 O         0.408397         0.350770         1.008118
 H         4.203452         3.924657        -2.393055
 H         1.001443         2.563215        -3.365402
 H         2.355040         2.768480        -4.517533
 H         3.302233         0.716949        -3.800019
 H         0.825041        -0.194530        -2.446803
 H         2.428443        -0.569458        -1.688757
 H         0.467866         1.597183        -1.402028
 H         1.918321         3.285238        -0.524605
 H         3.219176         2.165419        -0.140985
 H         2.321786        -0.121142         0.207689
