19
Iteration:   140
 O         4.294501         3.073607        -2.440482
 C         2.995502         2.412471        -2.348968
 C         2.253006         2.412302        -3.573691
 C         2.700283         1.027191        -3.021070
 C         1.614247         0.164594        -2.295363
 C         1.206704         1.250403        -1.119740
 C         2.313456         2.405989        -0.991475
 C         1.321526         0.334046         0.160765
 O         0.773880         0.350698         1.234615
 H         4.346811         3.437663        -1.546146
 H         1.232418         2.674314        -3.656816
 H         2.670813         2.833443        -4.487203
 H         3.454696         0.502186        -3.568321
 H         0.744295        -0.244305        -2.902388
 H         2.070817        -0.757040        -1.826309
 H         0.087788         1.620982        -1.195579
 H         1.768645         3.358682        -0.768423
 H         3.015541         2.270755        -0.116336
 H         2.185825        -0.554751        -0.024818
