19
Iteration:  4571charge 0 multiplicity 1
 O         4.307896         2.860514        -2.625741
 C         3.019375         2.386440        -2.393032
 C         2.055811         2.351798        -3.499928
 C         2.682945         1.081345        -2.965077
 C         1.796137         0.246064        -2.067805
 C         1.413068         1.346083        -0.948889
 C         2.487137         2.443388        -1.006822
 C         1.371311         0.554122         0.366580
 O         0.350756         0.150572         0.890040
 H         4.369585         3.831226        -2.672961
 H         1.011753         2.606412        -3.419587
 H         2.520022         2.759565        -4.465325
 H         3.501334         0.643257        -3.513347
 H         0.889280        -0.100235        -2.572257
 H         2.364058        -0.603962        -1.747963
 H         0.460421         1.855568        -1.162455
 H         2.107537         3.305585        -0.569493
 H         3.315286         2.154004        -0.343268
 H         2.524785         0.456505         0.746342
