19
Iteration:  2336charge 0 multiplicity 1
 O         4.414184         2.912012        -2.483802
 C         3.074253         2.363793        -2.420036
 C         2.109080         2.515985        -3.672515
 C         2.621462         1.152008        -3.074912
 C         1.777694         0.290876        -2.144649
 C         1.370602         1.137870        -0.967430
 C         2.327730         2.378528        -1.052891
 C         1.365577         0.390400         0.353342
 O         0.425674         0.290651         1.130774
 H         4.306976         3.877675        -2.277799
 H         0.993641         2.780359        -3.512872
 H         2.439457         2.691562        -4.695341
 H         3.313757         0.531156        -3.695729
 H         0.883216        -0.189934        -2.523844
 H         2.453428        -0.493715        -1.803994
 H         0.326920         1.503345        -0.964339
 H         1.986499         3.419139        -0.763408
 H         3.282218         2.102210        -0.498168
 H         2.339179        -0.212531         0.471337
