19
Iteration:   395
 O         4.374000         2.994894        -2.737644
 C         3.102531         2.401936        -2.407086
 C         2.051946         2.522282        -3.392516
 C         2.531697         1.238560        -3.098069
 C         1.920239         0.269148        -2.106875
 C         1.478412         1.185904        -0.845239
 C         2.604261         2.365365        -0.921198
 C         1.255586         0.403665         0.350858
 O         0.219062         0.077584         0.947619
 H         4.502609         3.136052        -3.706647
 H         1.020791         2.869212        -2.966642
 H         2.122119         3.103321        -4.376541
 H         2.982984         0.733062        -3.921334
 H         1.102857        -0.372598        -2.414724
 H         2.679618        -0.502204        -1.644696
 H         0.539523         1.709586        -1.053011
 H         2.050078         3.288319        -0.699546
 H         3.475364         2.139868        -0.209259
 H         2.212557         0.095514         1.004179
