19
Iteration:  1482charge 0 multiplicity 1
 O         4.414206         2.898386        -2.616207
 C         3.069881         2.390645        -2.374889
 C         1.991068         2.723241        -3.372209
 C         2.509237         1.264735        -3.195814
 C         1.763684         0.263857        -2.282942
 C         1.533110         1.112792        -0.917467
 C         2.569715         2.252866        -0.893731
 C         1.359996         0.264552         0.405755
 O         0.334193         0.258170         1.019586
 H         4.309798         3.694923        -3.127185
 H         0.981665         3.070548        -3.018579
 H         2.116042         3.017120        -4.496222
 H         3.211222         0.952231        -4.022602
 H         0.834187        -0.178310        -2.692842
 H         2.368113        -0.602720        -2.092620
 H         0.508786         1.542794        -1.000660
 H         2.042682         3.184737        -0.580776
 H         3.476902         1.936768        -0.374640
 H         2.136711        -0.392107         0.864273
