19
Iteration:   996charge 0 multiplicity 1
 O         4.372478         2.919199        -2.424539
 C         3.127750         2.348139        -2.479154
 C         1.967201         2.638955        -3.449711
 C         2.490698         1.148901        -3.155781
 C         1.691571         0.327852        -2.067329
 C         1.418799         1.234604        -0.920298
 C         2.659719         2.367343        -1.040432
 C         1.426672         0.371464         0.436528
 O         0.358947         0.077622         0.877328
 H         4.584570         3.601771        -3.057552
 H         1.018766         3.122145        -3.289093
 H         2.388075         2.971321        -4.484674
 H         2.658619         0.806056        -4.147672
 H         0.837658        -0.277190        -2.461061
 H         2.299561        -0.579506        -1.745445
 H         0.500683         1.873209        -0.982495
 H         2.161257         3.376450        -0.930062
 H         3.563428         2.035049        -0.433476
 H         2.413108        -0.128797         0.740156
