19
Iteration:  3332charge 0 multiplicity 1
 O         4.347147         2.977221        -2.620492
 C         3.113775         2.436217        -2.426000
 C         2.021856         2.393218        -3.487735
 C         2.680683         1.128127        -3.153928
 C         1.856539         0.313485        -2.133227
 C         1.399664         1.293991        -0.909827
 C         2.582883         2.316903        -1.017299
 C         1.295477         0.433742         0.443448
 O         0.253202         0.154442         1.016999
 H         4.170953         3.921341        -2.884556
 H         0.997747         2.800846        -3.415520
 H         2.587666         2.687847        -4.437078
 H         3.334034         0.461268        -3.685372
 H         0.987209        -0.145784        -2.648685
 H         2.336283        -0.602084        -1.751438
 H         0.361996         1.604712        -0.986536
 H         2.178772         3.229395        -0.685311
 H         3.294601         1.937458        -0.270428
 H         2.249625         0.213804         0.966922
