19
Iteration:   683
 O         4.314462         2.919460        -2.523654
 C         3.016220         2.401984        -2.305901
 C         1.883858         2.676953        -3.422560
 C         2.571339         1.275003        -3.155664
 C         1.964398         0.241232        -2.330797
 C         1.458211         1.093897        -1.046075
 C         2.568340         2.077658        -0.920861
 C         1.320271         0.454574         0.317704
 O         0.361281         0.362864         1.125867
 H         4.444036         3.189266        -3.474398
 H         0.895911         2.852399        -3.261752
 H         2.294070         3.032077        -4.326719
 H         3.181220         0.936839        -3.985846
 H         1.101102        -0.300739        -2.751321
 H         2.754243        -0.454571        -1.901496
 H         0.560017         1.432950        -1.442698
 H         2.431320         2.753689        -0.104069
 H         3.361775         1.449952        -0.347102
 H         2.283200        -0.049870         0.672117
