19
Iteration:  2417
 O         4.316119         3.050929        -2.301001
 C         3.040468         2.333222        -2.469492
 C         2.121048         2.422284        -3.746572
 C         2.578756         1.140845        -3.193715
 C         1.769876         0.217708        -2.280772
 C         1.355153         1.194658        -1.035955
 C         2.409501         2.295607        -0.976938
 C         1.346693         0.347931         0.420330
 O         0.482731         0.383700         1.223467
 H         4.951772         3.208888        -3.019300
 H         1.250449         2.980366        -3.453611
 H         2.551926         2.730841        -4.673879
 H         3.290265         0.581863        -3.782093
 H         0.809455        -0.258409        -2.688911
 H         2.357292        -0.518377        -1.895410
 H         0.379387         1.675107        -1.092512
 H         2.128332         3.359446        -0.676099
 H         3.333818         2.110581        -0.261519
 H         2.220259        -0.239967         0.528924
