19
Iteration:  4808charge 0 multiplicity 1
 O         4.320228         2.922213        -2.461184
 C         2.884730         2.411304        -2.353023
 C         2.133172         2.498589        -3.731057
 C         2.697030         1.118127        -3.133215
 C         1.929171         0.189125        -2.187287
 C         1.337530         1.051025        -1.058747
 C         2.361797         2.252375        -0.990534
 C         1.323124         0.360558         0.367212
 O         0.448845         0.556723         1.182135
 H         4.177984         3.871336        -2.411739
 H         1.122029         2.819061        -3.777611
 H         2.574341         2.784040        -4.621571
 H         3.563258         0.790623        -3.565250
 H         1.192818        -0.460744        -2.689015
 H         2.871729        -0.218309        -1.695832
 H         0.323500         1.428712        -1.046072
 H         1.966930         3.154382        -0.441860
 H         3.230026         1.928368        -0.446495
 H         2.186069        -0.322577         0.538704
