19
Iteration:  3458
 O         4.291486         2.789880        -2.571582
 C         2.976657         2.418025        -2.447357
 C         2.166379         2.484002        -3.740348
 C         2.611570         1.159934        -3.132391
 C         1.860115         0.347759        -2.134592
 C         1.413478         1.279635        -0.849612
 C         2.506758         2.444580        -0.923736
 C         1.343648         0.533463         0.567711
 O         0.316377         0.008245         0.959236
 H         4.314262         3.727879        -2.688102
 H         1.216127         2.922477        -3.646004
 H         2.711242         2.846388        -4.556253
 H         3.286738         0.482205        -3.756843
 H         0.927033        -0.115754        -2.466407
 H         2.591753        -0.440971        -1.839251
 H         0.387994         1.440510        -1.219269
 H         2.135236         3.539608        -0.765296
 H         3.436583         2.238332        -0.303234
 H         2.233843         0.571452         1.294305
