19
Iteration:  1211charge 0 multiplicity 1
 O         4.372184         2.834496        -2.605219
 C         3.002349         2.454018        -2.332365
 C         2.011405         2.617428        -3.501051
 C         2.609476         1.196642        -3.124705
 C         1.802938         0.348598        -2.244872
 C         1.418193         1.147169        -0.939012
 C         2.463628         2.278941        -0.896430
 C         1.407004         0.334092         0.329905
 O         0.420307         0.250717         0.979032
 H         4.383736         3.672868        -2.078411
 H         0.906544         2.771332        -3.219479
 H         2.317069         3.083269        -4.446373
 H         3.234303         0.650134        -3.822375
 H         0.854530         0.001371        -2.676254
 H         2.303157        -0.565121        -1.875975
 H         0.315909         1.508320        -0.911140
 H         2.264908         3.301237        -0.449970
 H         3.314482         1.764003        -0.386463
 H         2.365138        -0.070615         0.714201
