19
Iteration:  1146
 O         4.341803         2.939943        -2.663264
 C         3.060886         2.393189        -2.387621
 C         1.978893         2.674066        -3.304943
 C         2.598713         1.129427        -3.159219
 C         1.857218         0.264597        -2.150420
 C         1.406456         1.204306        -1.020382
 C         2.627357         2.167013        -0.922769
 C         1.270144         0.439687         0.254138
 O         0.340712         0.167955         1.045055
 H         4.512533         3.838003        -2.413286
 H         0.908409         2.826522        -3.035952
 H         2.306577         3.200968        -4.261055
 H         3.254847         0.777293        -3.915025
 H         0.997005        -0.186671        -2.720150
 H         2.498076        -0.465635        -1.770587
 H         0.477453         1.858876        -1.225707
 H         2.270610         3.091931        -0.382029
 H         3.449607         1.836974        -0.325820
 H         2.321355         0.224897         0.564430
