19
Iteration:   843
 O         4.434830         2.817869        -2.631080
 C         3.079991         2.387160        -2.359940
 C         2.020173         2.675875        -3.336112
 C         2.633583         1.138767        -3.109645
 C         1.746268         0.274249        -2.276500
 C         1.402130         1.220800        -0.983530
 C         2.432927         2.409297        -0.995800
 C         1.332776         0.336549         0.327185
 O         0.417343         0.142936         1.096116
 H         4.485667         3.740435        -3.032709
 H         0.913676         2.795376        -2.936294
 H         2.306059         3.197971        -4.252393
 H         3.239835         0.962059        -3.943624
 H         0.844799        -0.035263        -2.805065
 H         2.325687        -0.603185        -1.901597
 H         0.305715         1.568504        -1.206931
 H         2.123616         3.457305        -0.688963
 H         3.211168         2.142366        -0.245983
 H         2.356270         0.081828         0.720897
