19
Iteration:  4924
 O         4.281515         2.966510        -2.504410
 C         3.017538         2.398603        -2.444329
 C         2.199285         2.377094        -3.683070
 C         2.723194         1.146195        -3.013653
 C         1.834963         0.213666        -2.167977
 C         1.298182         1.191800        -1.002348
 C         2.425303         2.388925        -1.093513
 C         1.308315         0.354525         0.370668
 O         0.433045         0.348891         1.198336
 H         4.038038         3.870536        -2.416156
 H         1.138697         2.690865        -3.621434
 H         2.724286         2.689702        -4.560784
 H         3.408013         0.519125        -3.542948
 H         0.931461        -0.058618        -2.660011
 H         2.410819        -0.475846        -1.676753
 H         0.210252         1.567740        -1.157718
 H         1.977249         3.358185        -0.770883
 H         3.328236         2.221379        -0.423424
 H         2.236010        -0.272869         0.477566
