19
Iteration:  3998charge 0 multiplicity 1
 O         4.322751         2.938462        -2.697888
 C         2.950752         2.472816        -2.403292
 C         2.013399         2.419853        -3.566171
 C         2.691287         1.124777        -3.058760
 C         1.909618         0.214122        -2.054330
 C         1.499772         1.189099        -0.904766
 C         2.583101         2.313188        -0.924417
 C         1.267570         0.603329         0.493277
 O         0.222410         0.163160         0.904867
 H         4.383737         3.905395        -2.489685
 H         1.032357         2.693789        -3.504831
 H         2.620898         2.652511        -4.442987
 H         3.309011         0.753199        -3.829792
 H         1.102623        -0.043230        -2.683916
 H         2.478970        -0.649504        -1.851843
 H         0.504664         1.617306        -1.248000
 H         2.586710         3.326174        -0.414338
 H         3.555677         1.812289        -0.539001
 H         2.221833         0.261506         1.043873
