19
Iteration:  4255charge 0 multiplicity 1
 O         4.229280         2.944644        -2.408761
 C         3.011130         2.356147        -2.394262
 C         2.019485         2.440941        -3.462590
 C         2.712679         1.057809        -3.053227
 C         1.851025         0.216201        -2.175541
 C         1.423530         1.153953        -1.066594
 C         2.484146         2.276102        -1.023220
 C         1.381488         0.486034         0.237860
 O         0.422335         0.464939         1.021932
 H         4.235083         3.831459        -2.862502
 H         0.920107         2.342280        -3.152829
 H         2.261272         2.896651        -4.455858
 H         3.461943         0.666649        -3.799067
 H         0.981464        -0.257817        -2.679422
 H         2.444562        -0.597823        -1.694677
 H         0.478880         1.669598        -1.111065
 H         2.049863         3.198357        -0.598289
 H         3.325743         1.947357        -0.315389
 H         2.329270        -0.085047         0.446751
