19
Iteration:  2136charge 0 multiplicity 1
 O         4.325366         2.887693        -2.668240
 C         2.994060         2.443709        -2.424706
 C         1.935586         2.526820        -3.488990
 C         2.614247         1.169679        -3.099004
 C         1.906318         0.308660        -2.103350
 C         1.484686         1.246314        -0.929450
 C         2.590207         2.299697        -0.936582
 C         1.366548         0.418404         0.431962
 O         0.245628         0.206714         0.907578
 H         4.767702         2.798127        -1.827052
 H         0.815075         2.611407        -3.430332
 H         2.283877         2.926848        -4.414236
 H         3.306117         0.890150        -3.905921
 H         1.267775        -0.266410        -2.702637
 H         2.671425        -0.307841        -1.628340
 H         0.506466         1.717044        -1.155259
 H         2.240402         3.235020        -0.498819
 H         3.548991         1.987286        -0.327070
 H         2.262729        -0.054468         0.984388
