19
Iteration:  4128
 O         4.351214         2.949259        -2.489681
 C         3.092648         2.326751        -2.362117
 C         2.046804         2.319567        -3.495044
 C         2.658506         1.075902        -3.039796
 C         1.726759         0.295953        -2.098684
 C         1.312743         1.238057        -1.079885
 C         2.480959         2.425818        -1.005947
 C         1.402310         0.575085         0.354309
 O         0.427176         0.196383         0.924700
 H         4.235495         3.870860        -2.638584
 H         1.011173         2.590693        -3.298934
 H         2.167481         2.638354        -4.512858
 H         3.393532         0.561527        -3.765102
 H         0.925095        -0.304587        -2.621140
 H         2.507900        -0.584465        -1.829380
 H         0.334562         1.824936        -1.097223
 H         2.109278         3.439500        -0.617186
 H         3.243990         2.174887        -0.185531
 H         2.486735         0.372892         0.664210
