19
Iteration:   882
 O         4.332204         2.766641        -2.499026
 C         2.945392         2.410513        -2.371120
 C         2.043723         2.624458        -3.549058
 C         2.511821         1.190552        -3.157912
 C         1.714669         0.334798        -2.132907
 C         1.393938         1.312052        -0.959054
 C         2.575463         2.378467        -0.929405
 C         1.452188         0.390181         0.309117
 O         0.465169         0.121160         0.937191
 H         4.362574         3.590607        -2.020887
 H         0.989370         2.838148        -3.634089
 H         2.663828         2.986623        -4.332816
 H         3.120392         0.472294        -3.820218
 H         0.809438        -0.319423        -2.428684
 H         2.448650        -0.399772        -1.781356
 H         0.433148         1.818945        -0.880372
 H         2.346943         3.266563        -0.314493
 H         3.409131         1.774549        -0.529965
 H         2.525841         0.074406         0.544013
