19
Iteration:  1131
 O         4.323862         2.878706        -2.661741
 C         3.079402         2.407478        -2.282102
 C         1.977050         2.539799        -3.390033
 C         2.595448         1.280864        -3.142954
 C         1.834596         0.261897        -2.277197
 C         1.455271         1.214916        -1.029109
 C         2.617505         2.259684        -0.837923
 C         1.303771         0.461007         0.379450
 O         0.323776         0.177103         0.984859
 H         4.070195         3.800213        -2.902453
 H         1.020203         2.682642        -2.971218
 H         2.213971         3.189293        -4.207399
 H         3.245486         0.914930        -4.011185
 H         0.939567        -0.185389        -2.545324
 H         2.591593        -0.625343        -1.988873
 H         0.496589         1.627218        -1.319173
 H         2.534585         3.188033        -0.257808
 H         3.397105         1.485454        -0.351884
 H         2.285593        -0.074508         0.674649
