19
Iteration:   909
 O         4.439791         2.944804        -2.509092
 C         3.117774         2.353804        -2.457909
 C         2.034004         2.517964        -3.498858
 C         2.477652         1.180374        -3.133797
 C         1.628652         0.374740        -2.143643
 C         1.436041         1.283165        -0.890375
 C         2.556034         2.356054        -1.072397
 C         1.414976         0.367973         0.332472
 O         0.408083         0.040781         0.983532
 H         4.403020         3.560720        -1.788310
 H         1.094917         2.995040        -3.146599
 H         2.388415         2.841536        -4.532299
 H         2.948467         0.569624        -3.840014
 H         0.614989         0.141753        -2.458019
 H         2.155177        -0.610549        -1.933291
 H         0.446348         1.865241        -0.841159
 H         2.079442         3.353615        -0.742108
 H         3.412347         2.095045        -0.350243
 H         2.431658         0.204784         0.741148
