19
Iteration:  1701charge 0 multiplicity 1
 O         4.349929         2.923965        -2.681140
 C         2.996656         2.437011        -2.350017
 C         2.119143         2.679291        -3.575108
 C         2.571619         1.219109        -3.042219
 C         1.639711         0.424240        -2.166240
 C         1.439618         1.209569        -0.881407
 C         2.617608         2.276168        -0.904186
 C         1.352695         0.423306         0.381624
 O         0.368482        -0.017914         0.976308
 H         4.742979         2.107362        -2.995856
 H         1.016601         2.986820        -3.332813
 H         2.524858         3.157585        -4.445828
 H         3.286220         0.671796        -3.616237
 H         0.725568        -0.096388        -2.619542
 H         2.192948        -0.488774        -1.906597
 H         0.507021         1.742618        -1.085189
 H         2.284454         3.262978        -0.524114
 H         3.474306         1.946681        -0.355775
 H         2.417872         0.192827         0.940694
