19
Iteration:  2414charge 0 multiplicity 1
 O         4.323344         3.049479        -2.285760
 C         3.024649         2.341616        -2.453782
 C         2.110020         2.403904        -3.726113
 C         2.571643         1.120500        -3.147637
 C         1.749285         0.220892        -2.285696
 C         1.382705         1.212871        -1.042416
 C         2.388478         2.303969        -0.996434
 C         1.369560         0.344433         0.399394
 O         0.479823         0.390854         1.209371
 H         4.900072         3.172561        -3.083456
 H         1.238048         2.987572        -3.473914
 H         2.545051         2.767052        -4.744637
 H         3.280207         0.586288        -3.754416
 H         0.841782        -0.254901        -2.805611
 H         2.420474        -0.564497        -1.875907
 H         0.427880         1.735956        -1.163602
 H         2.214330         3.374747        -0.617865
 H         3.289691         2.031367        -0.364777
 H         2.346642        -0.247844         0.489010
