19
Iteration:  1977
 O         4.376451         2.811585        -2.544996
 C         3.038663         2.404460        -2.349556
 C         2.023398         2.495662        -3.490912
 C         2.653210         1.215458        -3.083566
 C         1.723740         0.370481        -2.319571
 C         1.293233         1.158825        -1.042403
 C         2.342615         2.323857        -0.945196
 C         1.400532         0.432464         0.287212
 O         0.555998         0.272788         1.113988
 H         4.918869         2.817504        -1.756950
 H         1.003929         2.786897        -3.350443
 H         2.516307         3.024740        -4.234028
 H         3.551472         0.920502        -3.616828
 H         0.928554        -0.084162        -2.951614
 H         2.250970        -0.540737        -1.928843
 H         0.241068         1.508486        -1.146173
 H         1.872812         3.327852        -0.651485
 H         3.186750         1.963692        -0.180499
 H         2.422535         0.115585         0.372248
