19
Iteration:   166charge 0 multiplicity 1
 O         4.305801         2.923551        -2.366289
 C         2.980289         2.352740        -2.367363
 C         2.187437         2.486038        -3.652129
 C         2.705901         1.154680        -3.137067
 C         1.729989         0.341506        -2.337698
 C         1.308004         1.109606        -1.019791
 C         2.209558         2.295679        -1.039133
 C         1.446516         0.240424         0.317416
 O         0.659053         0.466939         1.233393
 H         4.077737         3.786386        -1.971859
 H         1.072242         2.730914        -3.665782
 H         2.846268         2.814256        -4.459251
 H         3.426395         0.609982        -3.822403
 H         0.856300         0.262021        -2.927510
 H         2.031008        -0.672983        -2.188829
 H         0.261372         1.318293        -1.030527
 H         1.561500         3.150295        -0.973748
 H         2.776121         2.481163        -0.148230
 H         2.370082        -0.487960         0.488290
