19
Iteration:  2919
 O         4.309727         3.044776        -2.429735
 C         3.089913         2.359145        -2.422867
 C         1.948165         2.390266        -3.493169
 C         2.576817         1.054587        -3.138781
 C         1.868486         0.261179        -2.092215
 C         1.482631         1.210135        -0.986323
 C         2.632538         2.266203        -0.989839
 C         1.341360         0.519160         0.364066
 O         0.289938         0.276032         0.918432
 H         4.295169         3.368544        -3.337780
 H         1.051414         2.767092        -3.069790
 H         2.371008         3.031546        -4.278389
 H         2.979220         0.521040        -4.016045
 H         1.094176        -0.128586        -2.695642
 H         2.477168        -0.558483        -1.696182
 H         0.492667         1.758216        -1.163659
 H         2.158688         3.268233        -0.621718
 H         3.420265         2.012957        -0.257586
 H         2.300657         0.104584         0.763891
