19
Iteration:   876charge 0 multiplicity 1
 O         4.363643         2.744717        -2.547350
 C         2.965422         2.469515        -2.321369
 C         2.048863         2.548723        -3.527895
 C         2.483259         1.228374        -3.130119
 C         1.716653         0.348346        -2.174906
 C         1.402793         1.307525        -0.962247
 C         2.509390         2.319881        -0.904939
 C         1.463175         0.387003         0.246331
 O         0.462104         0.134932         0.962238
 H         4.465101         3.653326        -2.207105
 H         0.941030         2.857846        -3.603838
 H         2.683601         3.039290        -4.300705
 H         3.204835         0.737984        -3.714852
 H         0.881077        -0.301882        -2.419528
 H         2.497282        -0.347143        -1.751210
 H         0.302944         1.666650        -0.933755
 H         2.352222         3.277117        -0.314572
 H         3.429945         1.803034        -0.491978
 H         2.468576         0.223322         0.727091
