19
Iteration:    89
 O         4.196642         3.038149        -2.328100
 C         2.961098         2.349633        -2.341660
 C         2.176954         2.462407        -3.633601
 C         2.673371         1.119775        -3.097173
 C         1.692256         0.206230        -2.358621
 C         1.402821         1.072693        -1.024309
 C         2.292718         2.363420        -1.016962
 C         1.465259         0.446041         0.319135
 O         0.582729         0.388343         1.175316
 H         4.858182         2.441455        -2.670060
 H         1.251760         2.884345        -3.892161
 H         2.904146         2.753297        -4.407295
 H         3.503889         0.650305        -3.704042
 H         0.741355         0.175690        -2.836296
 H         2.083970        -0.780863        -2.208040
 H         0.354051         1.301547        -1.134958
 H         1.681592         3.223750        -0.820339
 H         3.109214         2.264357        -0.315608
 H         2.581814         0.036006         0.620672
