19
Iteration:  2902
 O         4.256284         3.013534        -2.472308
 C         3.055145         2.293262        -2.415746
 C         2.009831         2.432548        -3.365556
 C         2.662904         1.052364        -3.108553
 C         1.743624         0.206721        -2.110601
 C         1.432054         1.343022        -0.975264
 C         2.583537         2.267879        -0.921385
 C         1.367971         0.618107         0.255623
 O         0.370194         0.215156         0.851555
 H         4.487326         3.480904        -3.267020
 H         0.935420         2.338098        -3.105016
 H         2.230510         2.702864        -4.429030
 H         3.494405         0.629233        -3.746619
 H         0.694038        -0.201727        -2.391803
 H         2.525900        -0.494846        -1.694149
 H         0.497970         1.815162        -1.215016
 H         2.555834         3.257739        -0.517144
 H         3.411471         1.757673        -0.368032
 H         2.392942         0.496369         0.696397
