19
Iteration:  3746charge 0 multiplicity 1
 O         4.314124         3.026477        -2.389290
 C         3.011459         2.390198        -2.409762
 C         2.061221         2.507870        -3.542399
 C         2.707064         1.121052        -3.100651
 C         1.835778         0.163617        -2.212326
 C         1.344701         1.014783        -1.053993
 C         2.428215         2.227199        -0.958058
 C         1.293224         0.394640         0.262098
 O         0.487384         0.533264         1.144511
 H         4.448448         3.428001        -3.294464
 H         0.989202         2.704321        -3.430430
 H         2.468622         2.776335        -4.565441
 H         3.458826         0.599837        -3.795926
 H         0.895351        -0.215643        -2.676611
 H         2.431522        -0.696275        -1.796076
 H         0.315744         1.432076        -1.336752
 H         1.883387         3.120783        -0.695372
 H         3.314142         2.109900        -0.420078
 H         2.308564        -0.031324         0.457696
