19
Iteration:  1412
 O         4.352893         3.060212        -2.625346
 C         3.090038         2.420788        -2.379826
 C         2.025575         2.607609        -3.377353
 C         2.516508         1.155933        -3.181574
 C         1.716290         0.302201        -2.311385
 C         1.410126         1.132909        -0.977857
 C         2.624780         2.125488        -0.933194
 C         1.373752         0.341029         0.339193
 O         0.371388         0.287155         1.111662
 H         4.709198         3.451665        -1.835216
 H         0.999051         2.947351        -3.209789
 H         2.321349         2.867429        -4.347214
 H         3.139829         0.886926        -4.007665
 H         0.806121        -0.184615        -2.783742
 H         2.364414        -0.482321        -2.082438
 H         0.541409         1.724319        -1.212799
 H         2.385731         2.960692        -0.307535
 H         3.276960         1.471467        -0.443734
 H         2.297041        -0.220608         0.644154
