19
Iteration:   783charge 0 multiplicity 1
 O         4.274623         2.884683        -2.543064
 C         2.893153         2.495486        -2.301606
 C         1.973954         2.505277        -3.552336
 C         2.630535         1.255380        -3.128327
 C         1.755429         0.344175        -2.282974
 C         1.488878         1.199374        -0.997984
 C         2.680564         2.086006        -0.853908
 C         1.341569         0.413860         0.289077
 O         0.397591         0.302147         1.063643
 H         4.428796         3.843043        -2.361533
 H         0.996304         2.372690        -3.472061
 H         2.308027         3.063247        -4.400820
 H         3.433229         0.790792        -3.714115
 H         0.872730        -0.173791        -2.773590
 H         2.451655        -0.497087        -2.006173
 H         0.677242         1.852014        -1.165579
 H         2.553244         2.873353        -0.095036
 H         3.529476         1.370162        -0.569599
 H         2.333302        -0.069168         0.500900
