19
Iteration:  4624
 O         4.310863         2.956281        -2.596545
 C         3.092206         2.374401        -2.467177
 C         2.018143         2.440468        -3.595641
 C         2.669860         1.096296        -3.074512
 C         1.880235         0.211922        -2.053697
 C         1.422367         1.240938        -0.913848
 C         2.605967         2.361756        -0.961149
 C         1.285556         0.567258         0.432900
 O         0.253317         0.183191         0.987155
 H         4.208253         3.826280        -3.026369
 H         1.015464         2.617370        -3.353700
 H         2.372015         2.674541        -4.625815
 H         3.342095         0.580096        -3.787126
 H         0.976675        -0.121822        -2.516993
 H         2.526820        -0.580254        -1.698259
 H         0.480452         1.723917        -1.232304
 H         2.106310         3.255582        -0.467223
 H         3.484768         1.999211        -0.337952
 H         2.280631         0.279763         0.728306
