19
Iteration:  4600
 O         4.316079         2.978649        -2.563013
 C         3.069041         2.380710        -2.490588
 C         2.120091         2.399696        -3.662534
 C         2.608610         1.093808        -3.152242
 C         1.791791         0.286930        -1.976231
 C         1.437019         1.282101        -0.879314
 C         2.534214         2.371197        -1.015299
 C         1.370177         0.451844         0.511375
 O         0.246200         0.165166         0.940687
 H         4.212220         3.934977        -2.827877
 H         1.070463         2.554246        -3.667526
 H         2.739322         2.697129        -4.506322
 H         3.252119         0.284701        -3.795299
 H         0.935804        -0.236433        -2.403379
 H         2.671638        -0.362100        -1.678841
 H         0.501427         1.877812        -0.923620
 H         2.195983         3.447865        -0.448784
 H         3.451879         1.912998        -0.515437
 H         2.309866         0.393342         1.032866
