19
Iteration:  2973
 O         4.309331         2.944948        -2.533664
 C         3.008077         2.371246        -2.327997
 C         1.972518         2.541784        -3.473841
 C         2.613629         1.189124        -3.171745
 C         2.058986         0.226040        -2.165662
 C         1.474267         1.122433        -1.031869
 C         2.518539         2.255709        -0.872966
 C         1.240329         0.332967         0.307033
 O         0.321276         0.480476         1.041895
 H         4.171868         3.104009        -3.449721
 H         0.908693         2.451769        -3.369410
 H         2.178161         2.692827        -4.570409
 H         3.470314         0.801532        -3.808137
 H         1.317042        -0.413080        -2.641433
 H         2.895077        -0.363499        -1.764217
 H         0.462483         1.578519        -1.264965
 H         2.031740         3.212619        -0.510125
 H         3.239067         1.994921        -0.146229
 H         2.113080        -0.320434         0.578552
