19
Iteration:  1377
 O         4.298680         2.921233        -2.556501
 C         2.994733         2.381990        -2.335369
 C         1.980896         2.619291        -3.405385
 C         2.505828         1.207346        -3.275020
 C         1.759313         0.363893        -2.279250
 C         1.566308         1.144639        -0.959867
 C         2.554085         2.193477        -0.881379
 C         1.415767         0.299592         0.296854
 O         0.415429         0.359483         1.022513
 H         4.679565         2.975515        -1.686391
 H         0.957317         2.776376        -3.366755
 H         2.381588         3.026515        -4.313106
 H         3.207571         0.582587        -3.878124
 H         0.861095         0.002164        -2.792586
 H         2.442105        -0.494206        -2.083674
 H         0.508448         1.528387        -0.927393
 H         2.077180         3.008953        -0.321500
 H         3.460216         2.026975        -0.309361
 H         2.190799        -0.433814         0.622807
