19
Iteration:   435charge 0 multiplicity 1
 O         4.261359         3.041709        -2.435186
 C         2.965370         2.366855        -2.375010
 C         1.915045         2.372042        -3.521602
 C         2.537565         1.066558        -3.073650
 C         1.721832         0.357878        -2.090215
 C         1.467599         1.416922        -0.877954
 C         2.748773         2.249919        -0.898255
 C         1.444708         0.520964         0.277246
 O         0.401229         0.088777         0.761112
 H         4.612344         2.748236        -3.290440
 H         0.957631         2.682711        -3.302094
 H         2.301766         2.739279        -4.445217
 H         3.324270         0.539319        -3.700786
 H         0.741820        -0.017341        -2.523942
 H         2.249648        -0.525743        -1.820083
 H         0.492693         1.997413        -0.972345
 H         2.652510         3.287423        -0.471021
 H         3.603091         1.656731        -0.527576
 H         2.362402         0.596976         0.884843
