19
Iteration:  1238
 O         4.412411         2.954345        -2.545080
 C         3.089025         2.346090        -2.319358
 C         2.052432         2.619556        -3.415725
 C         2.563265         1.188133        -3.078294
 C         1.756156         0.256019        -2.278874
 C         1.336481         1.226658        -1.071398
 C         2.523667         2.242372        -0.951775
 C         1.289591         0.450499         0.231591
 O         0.470410         0.148788         1.149141
 H         4.038236         3.677916        -3.118253
 H         1.095487         2.918753        -3.164386
 H         2.343350         3.062612        -4.389197
 H         3.033259         0.575061        -3.882175
 H         0.848727        -0.209623        -2.773648
 H         2.416244        -0.440721        -1.752756
 H         0.421511         1.729875        -1.226119
 H         2.320813         3.237471        -0.584812
 H         3.217199         1.905651        -0.174822
 H         2.334843        -0.057906         0.348048
