19
Iteration:   687charge 0 multiplicity 1
 O         4.309477         2.879214        -2.521097
 C         3.008168         2.433434        -2.292958
 C         1.883738         2.667897        -3.455333
 C         2.574815         1.293904        -3.170862
 C         1.991513         0.224178        -2.316450
 C         1.443135         1.100271        -1.034020
 C         2.583196         2.076054        -0.885248
 C         1.301970         0.444692         0.323781
 O         0.367100         0.370638         1.115533
 H         4.382143         3.199550        -3.419397
 H         0.763726         2.698577        -3.252113
 H         2.222929         3.277658        -4.324236
 H         3.201074         0.952327        -3.981371
 H         1.109061        -0.380103        -2.702745
 H         2.829783        -0.453769        -2.041168
 H         0.448149         1.487980        -1.473691
 H         2.541274         2.877455        -0.084223
 H         3.496097         1.526498        -0.467891
 H         2.252970        -0.056682         0.553013
