19
Iteration:  2574charge 0 multiplicity 1
 O         4.330993         2.961253        -2.565451
 C         3.093835         2.381124        -2.395649
 C         1.942281         2.397728        -3.405752
 C         2.695786         1.069456        -3.079118
 C         1.825230         0.147948        -2.185231
 C         1.454502         1.303303        -0.983333
 C         2.513931         2.348604        -0.889716
 C         1.297884         0.365243         0.209495
 O         0.374964         0.427305         0.992693
 H         4.303243         3.926047        -2.366296
 H         0.918738         2.522778        -3.085058
 H         2.019062         2.768867        -4.466586
 H         3.203632         0.559849        -3.878772
 H         1.040161        -0.326540        -2.712909
 H         2.488596        -0.573646        -1.812764
 H         0.465384         1.777630        -1.062650
 H         2.343895         3.343325        -0.491259
 H         3.393506         1.883142        -0.289980
 H         2.164764        -0.248477         0.413483
