19
Iteration:  3359charge 0 multiplicity 1
 O         4.367040         2.944354        -2.670544
 C         3.024291         2.472928        -2.467445
 C         2.123545         2.481459        -3.681990
 C         2.629357         1.102300        -3.119893
 C         1.779377         0.259302        -2.001445
 C         1.473120         1.212133        -0.776393
 C         2.631668         2.490138        -0.964555
 C         1.265001         0.408684         0.412814
 O         0.226857         0.076143         0.986995
 H         4.241732         3.915000        -2.777009
 H         1.085204         2.834070        -3.623206
 H         2.650762         2.893266        -4.491865
 H         3.404430         0.419144        -3.541281
 H         0.902731        -0.277377        -2.391631
 H         2.371004        -0.618839        -1.658437
 H         0.429975         1.633690        -0.918766
 H         2.045581         3.447717        -0.595444
 H         3.576394         2.285125        -0.394330
 H         2.185654         0.015784         0.843997
