19
Iteration:  2467
 O         4.383533         2.892780        -2.417938
 C         2.965499         2.428090        -2.309629
 C         2.008968         2.443204        -3.521555
 C         2.648353         1.162140        -3.083806
 C         1.821364         0.208725        -2.209796
 C         1.342647         1.065286        -1.049891
 C         2.395111         2.334992        -0.865157
 C         1.384162         0.426349         0.173791
 O         0.517140         0.492120         1.051134
 H         4.519442         3.118268        -3.373958
 H         0.934270         2.422079        -3.324566
 H         2.271319         2.767928        -4.614637
 H         3.269378         0.587954        -3.765329
 H         1.012161        -0.223354        -2.812716
 H         2.468040        -0.714614        -1.811508
 H         0.425427         1.638264        -1.250988
 H         1.862097         3.271785        -0.633807
 H         3.203745         2.192670        -0.210163
 H         2.350833        -0.029852         0.405108
