19
Iteration:  4718charge 0 multiplicity 1
 O         4.239269         2.955659        -2.584886
 C         2.973842         2.450443        -2.412295
 C         2.070565         2.429227        -3.545680
 C         2.683368         1.106560        -3.141348
 C         1.976552         0.234625        -2.119751
 C         1.453651         1.080502        -0.975779
 C         2.527129         2.193335        -0.957500
 C         1.296462         0.435035         0.386987
 O         0.268672         0.481262         1.067872
 H         4.181081         3.912505        -2.574908
 H         1.011732         2.578436        -3.404765
 H         2.557063         2.970237        -4.394421
 H         3.537230         0.796679        -3.846846
 H         1.184257        -0.249534        -2.731080
 H         2.666873        -0.421574        -1.497488
 H         0.452747         1.444134        -1.265975
 H         2.293675         3.203734        -0.572429
 H         3.487115         1.816536        -0.640520
 H         2.228204        -0.188711         0.720528
