19
Iteration:  1112
 O         4.355247         2.924906        -2.587430
 C         2.992165         2.434961        -2.383274
 C         1.921452         2.627041        -3.386198
 C         2.629488         1.213075        -3.143137
 C         1.799646         0.313958        -2.177156
 C         1.517545         1.155537        -0.880915
 C         2.658197         2.173905        -0.878318
 C         1.365278         0.331703         0.343491
 O         0.305780         0.253649         0.881901
 H         4.264499         3.584379        -3.261602
 H         0.858424         2.789630        -3.227705
 H         2.259439         3.066150        -4.395169
 H         3.185361         0.577759        -3.744728
 H         0.939716        -0.089932        -2.728097
 H         2.302045        -0.561783        -1.858297
 H         0.525396         1.660753        -1.069993
 H         2.089485         3.018129        -0.441088
 H         3.619623         2.000793        -0.473555
 H         2.291378         0.099142         0.888182
