19
Iteration:  3397charge 0 multiplicity 1
 O         4.342521         2.824155        -2.584633
 C         3.058152         2.362973        -2.395710
 C         1.964925         2.396869        -3.456623
 C         2.689098         1.060293        -3.070351
 C         1.826755         0.304170        -2.042873
 C         1.315477         1.398335        -0.937321
 C         2.499898         2.407855        -0.923211
 C         1.413170         0.533839         0.297817
 O         0.385737         0.124047         0.809096
 H         4.475323         3.746278        -2.691651
 H         0.946291         2.381056        -3.078758
 H         2.126206         3.124375        -4.334218
 H         3.532841         0.704271        -3.639647
 H         0.890331        -0.217747        -2.353596
 H         2.499626        -0.473927        -1.612961
 H         0.317093         1.801680        -1.098158
 H         2.175012         3.360252        -0.706360
 H         3.242569         2.216919        -0.167551
 H         2.448697         0.606463         0.753381
