19
Iteration:  1643
 O         4.406176         2.739326        -2.519992
 C         2.986352         2.382485        -2.399052
 C         1.931631         2.620174        -3.375895
 C         2.456944         1.143476        -3.085915
 C         1.690634         0.314644        -2.119978
 C         1.430716         1.419756        -0.934275
 C         2.530749         2.375956        -0.986214
 C         1.505467         0.523185         0.318964
 O         0.475097         0.008603         0.789273
 H         4.824346         3.105868        -1.702955
 H         1.057670         3.146902        -2.943135
 H         2.303615         2.992175        -4.399548
 H         2.999177         0.946132        -4.033020
 H         0.702127        -0.007665        -2.578126
 H         2.337027        -0.534825        -1.731815
 H         0.414310         1.606334        -1.102759
 H         2.513621         3.393320        -0.666578
 H         3.326015         1.825924        -0.401136
 H         2.547266         0.196814         0.562724
