19
Iteration:  1914charge 0 multiplicity 1
 O         4.390220         2.976851        -2.355553
 C         3.015251         2.446597        -2.475958
 C         2.069893         2.581707        -3.630344
 C         2.603413         1.186032        -3.270732
 C         1.718593         0.248843        -2.254703
 C         1.368672         1.095836        -0.944380
 C         2.527384         2.222461        -0.934630
 C         1.313421         0.330987         0.329740
 O         0.451555         0.325417         1.207418
 H         4.634308         3.365679        -3.198758
 H         1.055094         3.029946        -3.466993
 H         2.634652         3.098732        -4.441408
 H         3.294517         0.733658        -3.942371
 H         0.776928        -0.025449        -2.663277
 H         2.263328        -0.673323        -2.050034
 H         0.298479         1.562614        -0.997830
 H         2.159630         3.099738        -0.401415
 H         3.360892         1.943950        -0.335519
 H         2.171793        -0.313218         0.387176
