19
Iteration:   385charge 0 multiplicity 1
 O         4.356224         2.884231        -2.733073
 C         3.123634         2.469603        -2.379253
 C         1.963005         2.621095        -3.382667
 C         2.587899         1.209538        -3.127927
 C         1.920588         0.265284        -2.113565
 C         1.567927         1.119190        -0.912141
 C         2.574748         2.386778        -0.925106
 C         1.276433         0.413220         0.481017
 O         0.183240         0.121073         0.925125
 H         4.196978         3.271728        -3.636180
 H         0.907727         2.713583        -2.886051
 H         2.232762         2.995390        -4.444863
 H         3.209026         0.785250        -3.894607
 H         1.128787        -0.295816        -2.554172
 H         2.834985        -0.400017        -1.961199
 H         0.591508         1.492225        -1.187805
 H         1.905733         3.174580        -0.569823
 H         3.409756         2.381340        -0.155441
 H         2.293101        -0.017809         0.865674
