19
Iteration:  1733
 O         4.324077         3.015046        -2.483704
 C         3.021561         2.361410        -2.404062
 C         2.000989         2.555038        -3.436811
 C         2.592001         1.123420        -3.116123
 C         1.640414         0.407000        -2.174990
 C         1.431460         1.282355        -0.898822
 C         2.706526         2.278359        -0.925655
 C         1.397746         0.376346         0.258872
 O         0.371906         0.124368         0.911180
 H         4.676746         2.406122        -3.200314
 H         0.936122         2.748402        -2.995802
 H         2.185135         2.942604        -4.432393
 H         3.050100         0.504641        -3.828255
 H         0.613989         0.133117        -2.552321
 H         2.259566        -0.424244        -1.838671
 H         0.548399         1.862967        -0.981198
 H         2.690198         3.272172        -0.432074
 H         3.562161         1.752605        -0.446969
 H         2.367158        -0.025825         0.573620
