19
Iteration:  2450charge 0 multiplicity 1
 O         4.285002         2.940538        -2.453808
 C         3.018869         2.379842        -2.385256
 C         2.139381         2.529451        -3.585124
 C         2.646415         1.132601        -3.099265
 C         1.832588         0.208822        -2.261480
 C         1.351184         1.149618        -1.069826
 C         2.354517         2.317028        -1.002509
 C         1.378810         0.350228         0.362258
 O         0.461021         0.442117         1.182023
 H         4.622228         2.982331        -3.380467
 H         1.164690         2.965446        -3.363156
 H         2.691657         2.937045        -4.373305
 H         3.504509         0.766825        -3.688554
 H         0.894559        -0.286551        -2.645993
 H         2.422042        -0.551621        -1.908132
 H         0.293608         1.385634        -1.124798
 H         1.860095         3.253715        -0.656083
 H         3.240534         1.993624        -0.301060
 H         2.222747        -0.365455         0.627917
