19
Iteration:  3766
 O         4.265931         3.017516        -2.326584
 C         3.045394         2.337367        -2.431751
 C         2.145230         2.465219        -3.618995
 C         2.639049         1.114872        -3.268398
 C         1.892006         0.223762        -2.320909
 C         1.356583         1.144883        -1.024050
 C         2.380170         2.252156        -1.076170
 C         1.365785         0.346613         0.517729
 O         0.414059         0.494834         1.232082
 H         4.396403         3.562840        -3.087324
 H         1.136974         2.889057        -3.491593
 H         2.660234         2.977732        -4.512108
 H         3.396493         0.512459        -3.913484
 H         1.038847        -0.326389        -2.700884
 H         2.737520        -0.459454        -2.039291
 H         0.160117         1.442702        -1.143713
 H         1.916110         3.191330        -0.715193
 H         3.217419         1.876840        -0.533719
 H         2.083898        -0.467520         0.670478
