19
Iteration:  3656charge 0 multiplicity 1
 O         4.275881         2.983258        -2.548270
 C         3.011925         2.350439        -2.353625
 C         2.120129         2.496111        -3.658992
 C         2.678704         1.211986        -3.165992
 C         1.854072         0.227764        -2.164037
 C         1.443045         1.073651        -0.929456
 C         2.500714         2.183157        -0.996760
 C         1.344887         0.395919         0.414235
 O         0.301806         0.454488         1.098624
 H         3.962712         3.919564        -2.631971
 H         1.018651         2.637630        -3.565995
 H         2.641225         2.896501        -4.502025
 H         3.334841         0.838042        -3.885253
 H         1.080295        -0.475108        -2.480382
 H         2.816028        -0.326939        -1.914189
 H         0.365889         1.619467        -1.075639
 H         2.106357         3.078859        -0.434609
 H         3.331746         1.872584        -0.410130
 H         2.169893        -0.322091         0.686545
