19
Iteration:   200charge 0 multiplicity 1
 O         4.296448         2.804118        -2.185786
 C         2.917194         2.447508        -2.313857
 C         2.130448         2.546106        -3.575715
 C         2.556484         1.139431        -3.220014
 C         1.819314         0.173647        -2.369828
 C         1.328159         1.067356        -1.116319
 C         2.195791         2.317107        -1.017404
 C         1.505287         0.415973         0.267694
 O         0.669563         0.511607         1.154619
 H         4.446646         3.344022        -3.015212
 H         1.009821         2.903737        -3.365163
 H         2.764736         2.999073        -4.385586
 H         3.460218         0.813075        -3.780720
 H         0.915770        -0.277717        -2.722147
 H         2.557722        -0.576663        -2.139624
 H         0.286828         1.165262        -1.204018
 H         1.605823         3.203545        -0.746145
 H         2.925218         2.055274        -0.272484
 H         2.658418         0.042687         0.623402
