19
Iteration:  2731charge 0 multiplicity 1
 O         4.372303         2.836298        -2.592858
 C         3.007035         2.396529        -2.405747
 C         2.163070         2.439488        -3.657563
 C         2.620574         1.138775        -3.064155
 C         1.669440         0.324682        -2.125067
 C         1.463732         1.327022        -0.763727
 C         2.534357         2.466310        -0.977937
 C         1.378522         0.542104         0.495435
 O         0.321763        -0.023722         0.896685
 H         4.064977         3.554699        -3.214772
 H         1.075854         2.631639        -3.599736
 H         2.773466         2.923760        -4.515670
 H         3.299063         0.674045        -3.876723
 H         0.728170         0.145891        -2.524439
 H         2.262123        -0.601914        -2.044716
 H         0.411705         1.581410        -1.023981
 H         2.137666         3.528278        -0.703755
 H         3.461014         2.214515        -0.308729
 H         2.157427         0.717542         1.271571
