19
Iteration:  4776
 O         4.296884         3.038043        -2.471507
 C         2.963700         2.278015        -2.381773
 C         2.039877         2.444563        -3.545064
 C         2.737553         1.059099        -3.102622
 C         1.887423         0.166328        -2.215769
 C         1.420335         1.091173        -1.047526
 C         2.451611         2.303502        -0.995965
 C         1.300100         0.386772         0.278577
 O         0.423550         0.566653         1.116771
 H         4.173885         4.024058        -2.470111
 H         1.006283         2.587165        -3.236319
 H         2.316701         2.827914        -4.476023
 H         3.535476         0.794042        -3.692805
 H         1.167138        -0.404287        -2.800107
 H         2.281675        -0.728398        -1.611980
 H         0.448434         1.545366        -1.235851
 H         2.042876         3.276096        -0.614877
 H         3.246892         2.062046        -0.289155
 H         2.164102        -0.398236         0.560176
