19
Iteration:  3551
 O         4.383347         2.926860        -2.556312
 C         3.000186         2.452841        -2.449330
 C         2.079652         2.506304        -3.687836
 C         2.653798         1.162564        -3.037515
 C         1.812884         0.318073        -2.058113
 C         1.414764         1.196917        -0.937852
 C         2.486854         2.247214        -1.024695
 C         1.343003         0.524621         0.513811
 O         0.310573         0.140145         0.974463
 H         4.490210         3.792307        -3.070596
 H         0.918540         2.531852        -3.547978
 H         2.434454         2.868323        -4.670387
 H         3.455522         0.528257        -3.508213
 H         0.959274        -0.171753        -2.601602
 H         2.390316        -0.521817        -1.734584
 H         0.460965         1.615234        -0.972944
 H         2.140197         3.197472        -0.668369
 H         3.354731         1.955946        -0.318939
 H         2.312797         0.232909         0.915869
