19
Iteration:   670
 O         4.319037         3.038709        -2.494256
 C         3.058327         2.403076        -2.399363
 C         2.000498         2.625731        -3.323731
 C         2.544222         1.212456        -3.185699
 C         1.835370         0.212471        -2.245802
 C         1.398430         1.044217        -1.083489
 C         2.583403         2.089137        -0.936602
 C         1.346735         0.390427         0.357341
 O         0.380193         0.374543         1.067081
 H         4.460351         3.121246        -3.431938
 H         1.000627         3.111925        -3.010129
 H         2.289935         3.033002        -4.331126
 H         3.168020         0.852928        -4.041599
 H         1.061222        -0.286621        -2.782888
 H         2.538875        -0.606828        -2.004140
 H         0.496620         1.613276        -1.108569
 H         2.210052         3.040633        -0.579358
 H         3.499132         1.673281        -0.457006
 H         2.395752         0.115853         0.732164
