19
Iteration:   330
 O         4.257807         3.058630        -2.536959
 C         3.067978         2.339187        -2.432059
 C         1.895237         2.456078        -3.376222
 C         2.582465         1.147422        -3.203737
 C         1.948019         0.178748        -2.104349
 C         1.421244         1.249432        -0.968417
 C         2.652910         2.185181        -0.972822
 C         1.302395         0.461251         0.248822
 O         0.346807         0.329670         0.980053
 H         4.523662         3.225091        -1.598952
 H         0.794188         2.828541        -3.262654
 H         2.172091         3.200170        -4.251277
 H         3.067822         0.740638        -4.096609
 H         1.187273        -0.426149        -2.538081
 H         2.749957        -0.552116        -1.765099
 H         0.476325         1.717884        -1.175261
 H         2.603372         3.094883        -0.379587
 H         3.524377         1.674809        -0.434372
 H         2.292880         0.086952         0.444541
