19
Iteration:   983
 O         4.485559         2.901137        -2.416581
 C         3.059148         2.416560        -2.471436
 C         1.992813         2.581822        -3.515036
 C         2.363949         1.178768        -3.103786
 C         1.746095         0.334966        -2.073781
 C         1.483232         1.303241        -0.888001
 C         2.581080         2.321502        -1.024744
 C         1.369179         0.388074         0.291649
 O         0.391831         0.045235         0.913284
 H         4.456191         3.655497        -3.059319
 H         1.045515         3.039280        -3.147898
 H         2.230418         2.700558        -4.632705
 H         2.842609         0.565190        -3.803615
 H         0.701595        -0.066725        -2.378227
 H         2.482816        -0.404715        -1.757252
 H         0.410007         1.680408        -1.054354
 H         2.334154         3.318452        -0.536017
 H         3.447367         2.086580        -0.404333
 H         2.385375        -0.017981         0.583633
