19
Iteration:  4278charge 0 multiplicity 1
 O         4.352917         3.081301        -2.570633
 C         3.090217         2.349897        -2.400033
 C         2.084994         2.445394        -3.576004
 C         2.648029         1.111565        -3.152473
 C         1.905961         0.170239        -2.219334
 C         1.399550         1.064251        -0.979563
 C         2.450831         2.276761        -0.956725
 C         1.238200         0.369249         0.355305
 O         0.339170         0.466156         1.180927
 H         4.184886         4.015871        -2.615598
 H         0.922094         2.724879        -3.366564
 H         2.542525         2.875192        -4.474290
 H         3.404903         0.680334        -3.950387
 H         1.076309        -0.346108        -2.800070
 H         2.543268        -0.594108        -1.766767
 H         0.398061         1.580055        -1.159463
 H         2.092529         3.223649        -0.481938
 H         3.281850         1.903159        -0.260350
 H         2.182263        -0.258565         0.594527
