19
Iteration:    11
 O         4.336001         2.876142        -2.511191
 C         3.011350         2.400442        -2.347592
 C         1.937767         2.456191        -3.550256
 C         2.615529         1.163713        -3.061245
 C         1.946293         0.183454        -2.094114
 C         1.335315         1.203327        -1.013329
 C         2.462257         2.351581        -0.972632
 C         1.444716         0.467586         0.314951
 O         0.389206         0.359579         0.970860
 H         4.246913         3.788966        -2.865671
 H         0.880371         2.313052        -3.531551
 H         2.366040         3.087742        -4.288553
 H         3.326232         0.630966        -3.653353
 H         1.310304        -0.525788        -2.612366
 H         2.768924        -0.392184        -1.667894
 H         0.240410         1.449264        -1.230924
 H         2.165660         3.290842        -0.506570
 H         3.280190         1.971218        -0.353208
 H         2.287128        -0.091855         0.381969
