19
Iteration:  2782
 O         4.415892         2.753005        -2.506134
 C         3.041287         2.375964        -2.393288
 C         2.010521         2.486991        -3.492238
 C         2.575754         1.050157        -3.056425
 C         1.725653         0.299016        -2.092637
 C         1.287270         1.402069        -1.058002
 C         2.520892         2.381398        -0.976520
 C         1.324967         0.743113         0.416106
 O         0.548590        -0.017010         0.856751
 H         4.361683         3.727634        -2.394470
 H         0.924357         2.708228        -3.322407
 H         2.360838         2.910306        -4.510632
 H         3.430041         0.572798        -3.636961
 H         0.851612        -0.158737        -2.680823
 H         2.391591        -0.383858        -1.502032
 H         0.312031         1.780353        -1.330888
 H         2.109116         3.314075        -0.773988
 H         3.155218         2.114874        -0.159951
 H         2.357797         0.762913         0.866464
