19
Iteration:   187charge 0 multiplicity 1
 O         4.285187         2.804325        -2.222906
 C         2.920360         2.452508        -2.369669
 C         2.157015         2.557065        -3.653349
 C         2.632425         1.186766        -3.152761
 C         1.733377         0.210548        -2.364318
 C         1.398991         0.928237        -1.062647
 C         2.188525         2.379727        -1.043718
 C         1.515218         0.357175         0.339459
 O         0.631166         0.515094         1.170019
 H         4.539156         3.608175        -2.676739
 H         1.075137         2.769405        -3.551717
 H         2.462999         3.064495        -4.542197
 H         3.604505         0.778543        -3.593387
 H         0.871856         0.013426        -2.943315
 H         2.158938        -0.764865        -2.200638
 H         0.355396         1.282425        -1.130602
 H         1.592216         3.193912        -0.648877
 H         3.072699         2.329379        -0.413848
 H         2.575541        -0.242965         0.580350
