19
Iteration:  2978
 O         4.314644         2.969439        -2.494927
 C         3.002577         2.349223        -2.325956
 C         1.964684         2.468799        -3.468753
 C         2.625485         1.191762        -3.183862
 C         2.019970         0.201401        -2.116425
 C         1.451369         1.130704        -1.091016
 C         2.514772         2.272289        -0.880005
 C         1.284571         0.359132         0.266951
 O         0.334529         0.498178         1.038955
 H         4.292067         3.258749        -3.469747
 H         0.872426         2.576165        -3.095455
 H         2.054254         2.926356        -4.487875
 H         3.373653         0.738420        -3.827726
 H         1.397900        -0.463423        -2.787833
 H         2.813567        -0.440776        -1.693497
 H         0.472103         1.561022        -1.312123
 H         2.060861         3.202344        -0.481946
 H         3.341609         1.885818        -0.117690
 H         2.087510        -0.388828         0.498603
