19
Iteration:  3109charge 0 multiplicity 1
 O         4.328922         2.893260        -2.385278
 C         2.997736         2.402745        -2.315662
 C         2.011951         2.420867        -3.484086
 C         2.716120         1.086769        -3.163789
 C         1.911988         0.187484        -2.142998
 C         1.319535         1.142880        -1.206178
 C         2.300600         2.396736        -1.030869
 C         1.268714         0.315679         0.155109
 O         0.662453         0.560493         1.173653
 H         4.284315         3.798785        -1.931688
 H         0.881470         2.418722        -3.422834
 H         2.371411         2.856585        -4.431819
 H         3.478657         0.830542        -3.813481
 H         1.058902        -0.416889        -2.525594
 H         2.625298        -0.469485        -1.696008
 H         0.286479         1.429907        -1.377453
 H         1.618860         3.201488        -0.811900
 H         2.944270         2.315581        -0.119299
 H         1.797524        -0.649201         0.116394
