19
Iteration:  4141
 O         4.271939         2.855579        -2.452002
 C         2.993051         2.347446        -2.339460
 C         2.005965         2.331576        -3.530372
 C         2.693740         1.046517        -3.072536
 C         1.795087         0.270872        -2.152182
 C         1.419672         1.349975        -0.999884
 C         2.457097         2.393904        -0.956649
 C         1.411112         0.577994         0.226424
 O         0.467273         0.244860         0.920962
 H         4.196080         3.855174        -2.414023
 H         0.966569         2.368923        -3.186530
 H         2.381096         2.876271        -4.320389
 H         3.612440         0.541148        -3.565704
 H         0.845142        -0.048156        -2.651528
 H         2.228051        -0.608635        -1.505823
 H         0.355195         1.640820        -1.268621
 H         1.995783         3.413317        -0.800209
 H         3.329932         2.154130        -0.215224
 H         2.471520         0.380452         0.649307
