19
Iteration:  3825
 O         4.287100         2.875822        -2.529861
 C         3.058149         2.353613        -2.293023
 C         2.035317         2.369485        -3.492954
 C         2.784280         1.111673        -3.038631
 C         1.818128         0.239652        -2.177464
 C         1.289367         1.206294        -1.108379
 C         2.366425         2.353827        -0.906022
 C         1.369779         0.463901         0.179683
 O         0.523911         0.425444         1.031901
 H         4.273117         3.868793        -2.372229
 H         0.983648         2.256091        -3.242634
 H         2.302330         3.033278        -4.252244
 H         3.391393         0.533831        -3.684128
 H         0.948547        -0.319254        -2.665929
 H         2.403312        -0.594211        -1.704306
 H         0.279143         1.597643        -1.294209
 H         1.859934         3.254183        -0.672579
 H         3.038238         2.319597        -0.090535
 H         2.409252         0.055310         0.319500
