19
Iteration:  1273
 O         4.387563         2.985421        -2.352311
 C         2.970963         2.404485        -2.384538
 C         1.979568         2.588637        -3.546824
 C         2.556983         1.166627        -3.112549
 C         1.631883         0.323863        -2.230951
 C         1.447405         1.208456        -0.948851
 C         2.555639         2.219130        -0.927823
 C         1.456064         0.315777         0.268988
 O         0.458272         0.306769         0.997422
 H         4.663644         2.964677        -3.310277
 H         0.911465         2.579324        -3.312747
 H         2.376000         3.005278        -4.481670
 H         3.180655         0.534863        -3.661551
 H         0.794786        -0.152844        -2.713242
 H         2.394123        -0.572580        -2.223249
 H         0.461720         1.529491        -1.055423
 H         2.092554         3.115107        -0.582042
 H         3.539181         1.925881        -0.433661
 H         2.386955        -0.311442         0.388835
