19
Iteration:  2403charge 0 multiplicity 1
 O         4.305669         3.000929        -2.268383
 C         3.004750         2.427607        -2.406145
 C         2.094643         2.432252        -3.612420
 C         2.626466         1.056269        -3.075151
 C         1.708912         0.254338        -2.208755
 C         1.364309         1.181535        -1.023956
 C         2.442373         2.327563        -1.088161
 C         1.398354         0.417340         0.275457
 O         0.524038         0.398991         1.126760
 H         4.530305         2.986826        -3.211171
 H         1.013649         2.605235        -3.602276
 H         2.602621         2.677659        -4.624577
 H         3.299941         0.570753        -3.766370
 H         0.856486        -0.154594        -2.839924
 H         2.259327        -0.652293        -1.908907
 H         0.332909         1.511365        -1.186831
 H         2.036026         3.223235        -0.508674
 H         3.312692         1.845583        -0.545068
 H         2.320979        -0.156112         0.480966
