19
Iteration:   339charge 0 multiplicity 1
 O         4.297750         3.000338        -2.543348
 C         3.007324         2.335927        -2.373976
 C         1.836860         2.531213        -3.419724
 C         2.503656         1.132728        -3.178847
 C         1.982577         0.219146        -2.128058
 C         1.504968         1.231554        -1.000101
 C         2.658839         2.193685        -0.945027
 C         1.333608         0.463345         0.257788
 O         0.328097         0.320580         0.937898
 H         4.501494         3.424510        -1.669749
 H         0.858235         2.656178        -3.029752
 H         2.288556         2.858059        -4.338449
 H         3.185461         0.786819        -3.978522
 H         1.152379        -0.445852        -2.423983
 H         2.827048        -0.367285        -1.619999
 H         0.569532         1.736472        -1.315247
 H         2.330000         3.121271        -0.465494
 H         3.525368         1.695657        -0.391873
 H         2.322283         0.118434         0.697976
