19
Iteration:  1858charge 0 multiplicity 1
 O         4.275135         3.004707        -2.525504
 C         3.103322         2.370429        -2.323873
 C         1.944992         2.522484        -3.296778
 C         2.567081         1.148498        -3.128077
 C         1.748291         0.266732        -2.281641
 C         1.442022         1.181907        -1.039230
 C         2.635141         2.235127        -0.936056
 C         1.325716         0.373867         0.181885
 O         0.459477         0.390288         1.002945
 H         5.062138         2.709544        -2.019593
 H         0.907657         2.566397        -2.956251
 H         2.102918         3.009937        -4.203119
 H         3.186298         0.657810        -3.931363
 H         0.845153        -0.167848        -2.654705
 H         2.318808        -0.581847        -1.934220
 H         0.439136         1.703600        -1.173553
 H         2.158645         3.130090        -0.513869
 H         3.287448         1.840212        -0.252726
 H         2.255760        -0.357572         0.215454
