19
Iteration:  3523
 O         4.306824         2.941192        -2.570480
 C         3.079548         2.336610        -2.312085
 C         2.064678         2.357853        -3.445752
 C         2.587826         1.017859        -3.043278
 C         1.778707         0.266645        -2.087484
 C         1.417149         1.340946        -1.037180
 C         2.539431         2.424663        -0.947979
 C         1.379349         0.602066         0.291902
 O         0.396604         0.119741         0.888103
 H         4.290823         3.894985        -2.811732
 H         1.067353         2.560268        -3.212486
 H         2.382889         3.025044        -4.227928
 H         3.231393         0.355988        -3.698519
 H         0.915840        -0.136191        -2.630758
 H         2.194062        -0.722092        -1.685908
 H         0.358724         1.911461        -1.187919
 H         2.081946         3.489173        -0.841430
 H         3.130991         2.274988        -0.004952
 H         2.450200         0.208998         0.531853
