19
Iteration:   842
 O         4.434394         2.827612        -2.629648
 C         3.077277         2.383161        -2.358843
 C         2.025950         2.667816        -3.329824
 C         2.623054         1.135193        -3.117889
 C         1.745117         0.278587        -2.275473
 C         1.404029         1.216587        -0.978029
 C         2.438811         2.409600        -1.004645
 C         1.337798         0.332882         0.324664
 O         0.410477         0.145186         1.099836
 H         4.513963         3.740800        -3.030729
 H         0.925592         2.806758        -2.918550
 H         2.316263         3.194086        -4.237211
 H         3.262926         0.966559        -3.957285
 H         0.820190        -0.054822        -2.822864
 H         2.346459        -0.599940        -1.906703
 H         0.296418         1.585929        -1.220566
 H         2.109396         3.489711        -0.713887
 H         3.214463         2.136135        -0.208981
 H         2.372831         0.076672         0.710199
