19
Iteration:  3798charge 0 multiplicity 1
 O         4.303155         2.923355        -2.391076
 C         3.000128         2.432806        -2.417213
 C         2.128881         2.462581        -3.639988
 C         2.659145         1.141553        -3.095429
 C         1.849139         0.170916        -2.201348
 C         1.374650         1.113462        -1.052079
 C         2.316475         2.270310        -0.975602
 C         1.399554         0.434511         0.342338
 O         0.462728         0.472064         1.126112
 H         4.326783         3.803607        -2.871231
 H         1.115499         2.829703        -3.466504
 H         2.649288         2.812802        -4.585882
 H         3.272301         0.502621        -3.799848
 H         0.921416        -0.196191        -2.592261
 H         2.456396        -0.722105        -1.953010
 H         0.277388         1.373083        -1.342771
 H         1.918257         3.181091        -0.401051
 H         3.259759         2.017133        -0.419476
 H         2.330378        -0.229407         0.487698
