19
Iteration:  4574
 O         4.324449         2.877067        -2.621915
 C         2.995664         2.388957        -2.406242
 C         2.066630         2.340651        -3.540327
 C         2.654353         1.093119        -2.983257
 C         1.797415         0.234203        -2.059055
 C         1.444203         1.341048        -0.939487
 C         2.485996         2.406365        -0.959901
 C         1.354088         0.563773         0.372080
 O         0.350896         0.148686         0.892925
 H         4.295123         3.874946        -2.667620
 H         0.996069         2.730953        -3.406372
 H         2.590450         2.662577        -4.449939
 H         3.452407         0.646306        -3.409652
 H         0.853125        -0.053662        -2.598073
 H         2.475637        -0.634990        -1.793664
 H         0.539943         1.897787        -1.128465
 H         2.112026         3.463269        -0.722081
 H         3.353725         2.152286        -0.348418
 H         2.457493         0.425692         0.711939
