19
Iteration:  2147charge 0 multiplicity 1
 O         4.315473         2.970697        -2.726210
 C         2.992034         2.405046        -2.365220
 C         1.917860         2.540285        -3.447095
 C         2.659417         1.158346        -3.046082
 C         1.927118         0.202730        -2.112209
 C         1.467708         1.209156        -0.946623
 C         2.573359         2.287636        -0.895811
 C         1.316710         0.498319         0.353978
 O         0.282649         0.228307         0.868818
 H         4.967462         2.578481        -2.101072
 H         1.005953         2.946311        -2.961137
 H         2.293784         3.013390        -4.335680
 H         3.306041         0.611524        -3.735997
 H         1.042650        -0.303474        -2.437304
 H         2.487141        -0.627026        -1.708098
 H         0.497099         1.699102        -1.158035
 H         2.258108         3.246531        -0.478742
 H         3.463203         1.827431        -0.265139
 H         2.364726         0.216415         0.726285
