19
Iteration:  4166charge 0 multiplicity 1
 O         4.319672         2.864074        -2.560823
 C         3.007698         2.441356        -2.397485
 C         2.121102         2.414137        -3.632545
 C         2.674885         1.141918        -3.027817
 C         1.786867         0.255413        -2.115915
 C         1.349253         1.217790        -0.971645
 C         2.386875         2.418437        -0.996190
 C         1.392810         0.450428         0.360077
 O         0.429225         0.260801         1.020875
 H         4.419073         3.778973        -2.218001
 H         1.083702         2.670746        -3.533460
 H         2.677466         2.678479        -4.594968
 H         3.450305         0.661314        -3.535292
 H         0.997894        -0.205343        -2.725711
 H         2.268241        -0.543090        -1.599810
 H         0.329281         1.437810        -1.099608
 H         1.992029         3.373943        -0.689061
 H         3.260508         2.096814        -0.321512
 H         2.419660        -0.016625         0.666043
