19
Iteration:  4891
 O         4.300371         2.927335        -2.432198
 C         2.952256         2.398015        -2.315219
 C         2.155324         2.365165        -3.715748
 C         2.706202         1.139037        -3.107527
 C         1.835313         0.181258        -2.232592
 C         1.283898         1.127249        -1.061421
 C         2.383954         2.358541        -0.933433
 C         1.373488         0.450626         0.279912
 O         0.501117         0.439812         1.156020
 H         4.064756         3.899734        -2.542026
 H         1.058961         2.535645        -3.678868
 H         2.716500         2.837461        -4.535930
 H         3.475429         0.502124        -3.602507
 H         1.021369        -0.362837        -2.761895
 H         2.352841        -0.623553        -1.824234
 H         0.208327         1.485741        -1.020305
 H         1.943589         3.340228        -0.669473
 H         3.249960         2.168509        -0.202416
 H         2.317861         0.112525         0.627895
