19
Iteration:  1097charge 0 multiplicity 1
 O         4.305042         2.994696        -2.497936
 C         3.055457         2.414208        -2.411782
 C         1.991943         2.620771        -3.449179
 C         2.496091         1.127161        -3.107159
 C         1.749233         0.227390        -2.115168
 C         1.616501         1.161300        -0.898077
 C         2.649905         2.297826        -0.983006
 C         1.377516         0.334116         0.376599
 O         0.288621         0.246775         0.845458
 H         4.433080         3.605758        -3.267483
 H         1.029660         2.899594        -3.020203
 H         2.207919         3.123945        -4.326601
 H         3.044630         0.860830        -4.077961
 H         0.755511        -0.061224        -2.340008
 H         2.411962        -0.734124        -1.955479
 H         0.649022         1.598016        -0.955345
 H         2.465563         3.225209        -0.458780
 H         3.563430         1.816279        -0.423609
 H         2.213812        -0.384726         0.651597
