19
Iteration:  2141
 O         4.331951         2.919661        -2.695876
 C         2.956718         2.419849        -2.416238
 C         1.910804         2.537582        -3.476126
 C         2.648381         1.169652        -3.064356
 C         1.921220         0.288444        -2.111253
 C         1.476567         1.242509        -0.941529
 C         2.594407         2.283283        -0.895339
 C         1.364953         0.447593         0.412698
 O         0.254868         0.216721         0.888432
 H         4.907695         2.709464        -1.913508
 H         0.903508         2.783932        -3.179990
 H         2.350970         2.989982        -4.398681
 H         3.291135         0.751628        -3.828210
 H         1.244580        -0.471468        -2.702215
 H         2.481947        -0.570833        -1.597247
 H         0.551989         1.742907        -1.218544
 H         2.213151         3.268497        -0.550283
 H         3.404264         1.919423        -0.356653
 H         2.291787         0.037767         0.891771
