19
Iteration:  3471
 O         4.341044         2.797643        -2.576716
 C         2.996485         2.427793        -2.406263
 C         2.093295         2.460999        -3.710976
 C         2.623648         1.147500        -3.107029
 C         1.816989         0.339957        -2.040751
 C         1.500048         1.308483        -0.889889
 C         2.482033         2.463564        -0.967251
 C         1.282926         0.486468         0.386136
 O         0.333451         0.013054         0.986925
 H         4.413873         3.799631        -2.623838
 H         1.052534         2.585190        -3.719774
 H         2.594201         2.716421        -4.658537
 H         3.529084         0.788216        -3.591901
 H         0.932631        -0.116715        -2.532921
 H         2.318029        -0.518184        -1.632755
 H         0.648546         1.894863        -0.824010
 H         1.968297         3.369193        -0.510239
 H         3.384600         2.279743        -0.262334
 H         2.332544         0.603072         0.953937
