19
Iteration:  1970
 O         4.387420         2.800050        -2.577525
 C         3.026040         2.398965        -2.288869
 C         2.045725         2.490830        -3.425517
 C         2.662034         1.214588        -3.070483
 C         1.694485         0.347708        -2.296628
 C         1.306679         1.173452        -1.147137
 C         2.329905         2.332960        -0.902675
 C         1.420777         0.449449         0.231786
 O         0.573644         0.292778         1.090103
 H         4.660318         2.992460        -1.658756
 H         0.990584         2.746142        -3.182267
 H         2.456183         2.823095        -4.480692
 H         3.431508         0.871224        -3.721416
 H         0.844527        -0.064730        -2.779868
 H         2.343169        -0.449511        -1.978311
 H         0.215577         1.534332        -1.151125
 H         1.809127         3.185838        -0.494344
 H         3.053823         1.947533        -0.197478
 H         2.512047         0.039367         0.565241
