19
Iteration:  4951charge 0 multiplicity 1
 O         4.333578         2.951972        -2.527775
 C         3.070901         2.388034        -2.345527
 C         2.076828         2.265413        -3.540643
 C         2.694967         1.095630        -3.066341
 C         1.835524         0.212437        -2.156035
 C         1.404949         1.247994        -1.024005
 C         2.333053         2.382412        -0.959311
 C         1.407229         0.450162         0.291858
 O         0.411062         0.378233         1.024838
 H         4.146646         3.870369        -2.668539
 H         1.032695         2.412828        -3.281480
 H         2.391903         2.825235        -4.458950
 H         3.427090         0.515308        -3.740431
 H         0.758325         0.078592        -2.530871
 H         2.469148        -0.576587        -1.580591
 H         0.349875         1.558745        -1.162171
 H         1.693553         3.301386        -0.839780
 H         3.072297         2.311075        -0.146698
 H         2.385409        -0.079423         0.390910
