19
Iteration:  1203charge 0 multiplicity 1
 O         4.292902         2.815720        -2.550406
 C         3.007932         2.375465        -2.348548
 C         1.965039         2.605294        -3.549146
 C         2.585817         1.249175        -3.063945
 C         1.788694         0.340712        -2.246790
 C         1.506097         1.148727        -0.936126
 C         2.536003         2.319124        -0.920370
 C         1.444685         0.363939         0.332434
 O         0.378328         0.248076         0.972027
 H         4.608080         3.552586        -1.934697
 H         0.866948         2.751096        -3.331992
 H         2.390692         3.089897        -4.385579
 H         3.270848         0.791284        -3.869774
 H         0.887682        -0.125348        -2.835796
 H         2.367347        -0.524720        -2.077245
 H         0.511517         1.689396        -0.992289
 H         2.111616         3.257105        -0.480597
 H         3.406811         1.979286        -0.402638
 H         2.341768        -0.308274         0.685033
