19
Iteration:    98
 O         4.192890         3.038685        -2.333171
 C         2.895767         2.391514        -2.334934
 C         2.184356         2.417653        -3.649568
 C         2.744977         1.060222        -3.134126
 C         1.660278         0.205587        -2.366020
 C         1.312781         1.175062        -1.036107
 C         2.309392         2.348152        -0.974608
 C         1.488214         0.398937         0.311138
 O         0.636897         0.393151         1.152793
 H         4.947963         2.466004        -2.434451
 H         1.153618         2.610985        -3.728496
 H         2.873194         2.906795        -4.356225
 H         3.702823         0.691978        -3.503043
 H         0.819738         0.023204        -3.018610
 H         1.921953        -0.799993        -2.078982
 H         0.306141         1.748758        -1.083136
 H         1.824769         3.259205        -0.637794
 H         3.057276         2.264312        -0.208823
 H         2.481002        -0.031272         0.489253
