19
Iteration:  2334charge 0 multiplicity 1
 O         4.400647         2.908619        -2.479061
 C         3.067932         2.380563        -2.425365
 C         2.118214         2.508621        -3.673986
 C         2.601457         1.149981        -3.095100
 C         1.773959         0.304019        -2.138033
 C         1.362010         1.128768        -0.956625
 C         2.346372         2.389758        -1.048979
 C         1.385306         0.384110         0.361247
 O         0.417835         0.289658         1.128474
 H         4.389000         3.859439        -2.214275
 H         1.005030         2.712446        -3.561965
 H         2.499221         2.650229        -4.654615
 H         3.312214         0.591459        -3.741070
 H         0.940355        -0.207063        -2.519833
 H         2.527209        -0.531461        -1.808358
 H         0.318121         1.526183        -1.028692
 H         2.058236         3.382711        -0.791808
 H         3.239281         2.106871        -0.521640
 H         2.270428        -0.206903         0.512523
