19
Iteration:    46
 O         4.319104         2.820287        -2.297358
 C         2.977370         2.383541        -2.416167
 C         2.009648         2.563460        -3.545398
 C         2.569319         1.166875        -3.162768
 C         2.003789         0.176874        -2.183451
 C         1.393082         1.113149        -1.085058
 C         2.310438         2.456753        -1.100839
 C         1.372901         0.483279         0.323485
 O         0.502701         0.324986         1.171686
 H         4.756049         2.926692        -3.150910
 H         0.989489         2.762203        -3.284438
 H         2.284991         2.994524        -4.540583
 H         3.144987         0.679557        -3.998365
 H         1.239305        -0.463276        -2.623291
 H         2.816386        -0.490815        -1.859975
 H         0.446332         1.395625        -1.418562
 H         1.728634         3.371873        -0.977535
 H         3.026929         2.393336        -0.268999
 H         2.296141        -0.013528         0.526810
