19
Iteration:  2880
 O         4.355250         2.966388        -2.590168
 C         3.029189         2.396446        -2.352021
 C         2.050796         2.409631        -3.509054
 C         2.634917         1.076849        -2.992026
 C         1.764160         0.335234        -2.075420
 C         1.387794         1.355938        -1.011346
 C         2.560599         2.313813        -0.899552
 C         1.368238         0.562056         0.396358
 O         0.357182         0.069520         0.844080
 H         4.291854         3.346360        -3.502930
 H         0.936738         2.593503        -3.428998
 H         2.353101         2.653416        -4.592501
 H         3.355202         0.349252        -3.520810
 H         0.680365         0.161981        -2.516885
 H         2.248949        -0.562482        -1.537890
 H         0.461946         1.838622        -1.310978
 H         2.399510         3.273125        -0.450022
 H         3.468309         1.901113        -0.418177
 H         2.372949         0.473750         0.866832
