19
Iteration:  1080charge 0 multiplicity 1
 O         4.351365         3.065981        -2.460574
 C         3.085206         2.330259        -2.411073
 C         1.937314         2.566116        -3.393922
 C         2.417758         1.109851        -3.174139
 C         1.808535         0.260571        -2.199111
 C         1.518383         1.288796        -0.829457
 C         2.744965         2.225061        -0.920633
 C         1.350641         0.328654         0.297427
 O         0.294394         0.203126         0.889171
 H         4.317227         3.383694        -3.424462
 H         0.932798         3.004687        -3.198836
 H         2.417833         2.764424        -4.485860
 H         2.813271         0.594648        -4.003457
 H         0.809471        -0.285259        -2.591453
 H         2.557050        -0.380052        -1.897938
 H         0.601717         2.011185        -0.954964
 H         2.419845         3.273013        -0.628513
 H         3.619614         2.195999        -0.369262
 H         2.338756        -0.176067         0.607946
