19
Iteration:  2101charge 0 multiplicity 1
 O         4.360133         2.893242        -2.573255
 C         3.083081         2.387825        -2.462212
 C         2.053333         2.627900        -3.512065
 C         2.554991         1.166920        -3.083678
 C         1.804174         0.207220        -2.056918
 C         1.426585         1.240190        -0.960145
 C         2.554925         2.351753        -1.016418
 C         1.382197         0.416710         0.367200
 O         0.311928         0.173287         0.971897
 H         4.218246         3.772993        -2.210162
 H         0.949594         2.961954        -3.545095
 H         2.586764         2.647456        -4.482147
 H         3.047068         0.619456        -3.931600
 H         0.914868        -0.279982        -2.414973
 H         2.458027        -0.592786        -1.646613
 H         0.406387         1.764794        -0.892195
 H         1.995761         3.189827        -0.587608
 H         3.462907         2.168654        -0.264886
 H         2.412343        -0.096711         0.616097
