19
Iteration:  2168charge 0 multiplicity 1
 O         4.258349         3.131084        -2.705947
 C         3.126613         2.335854        -2.312615
 C         2.033005         2.464445        -3.251094
 C         2.560566         1.090657        -3.091523
 C         1.840778         0.202448        -2.118453
 C         1.462153         1.226837        -1.048776
 C         2.616153         2.262026        -0.924135
 C         1.327335         0.528409         0.368572
 O         0.272797         0.240390         0.857769
 H         5.056493         2.571641        -2.925753
 H         0.957572         2.556094        -2.976862
 H         2.384419         2.809877        -4.215373
 H         3.030533         0.611561        -3.978178
 H         1.154819        -0.413646        -2.547748
 H         2.449579        -0.548402        -1.604336
 H         0.513979         1.768023        -1.364795
 H         2.177579         3.203340        -0.636756
 H         3.381328         1.844476        -0.135869
 H         2.303676         0.342121         0.818843
