19
Iteration:  3521charge 0 multiplicity 1
 O         4.322213         2.945330        -2.577969
 C         3.066056         2.336579        -2.293320
 C         2.065375         2.370174        -3.437956
 C         2.592812         1.001765        -3.027986
 C         1.764934         0.277081        -2.079514
 C         1.417018         1.338425        -1.040742
 C         2.546148         2.416865        -0.948609
 C         1.383814         0.608083         0.281524
 O         0.405285         0.121194         0.875361
 H         4.223877         3.868723        -2.764371
 H         0.978130         2.511854        -3.181476
 H         2.356129         3.022129        -4.233270
 H         3.250585         0.335028        -3.711079
 H         0.866574        -0.138159        -2.563468
 H         2.211758        -0.681519        -1.668598
 H         0.389307         1.915334        -1.254812
 H         2.092658         3.415352        -0.935449
 H         3.019723         2.315136        -0.037029
 H         2.458873         0.182222         0.480841
