19
Iteration:  1212
 O         4.378682         2.837492        -2.608516
 C         3.001301         2.459237        -2.339102
 C         2.019233         2.614798        -3.491510
 C         2.611365         1.199646        -3.134344
 C         1.800286         0.341663        -2.235027
 C         1.406421         1.150566        -0.941621
 C         2.462385         2.271002        -0.895640
 C         1.408685         0.332023         0.325879
 O         0.418539         0.249771         0.984371
 H         4.386407         3.705578        -2.099567
 H         0.909331         2.780197        -3.211310
 H         2.310601         3.067207        -4.429000
 H         3.268094         0.638187        -3.839730
 H         0.815721         0.009207        -2.675312
 H         2.302280        -0.536362        -1.875384
 H         0.292049         1.494816        -0.930910
 H         2.267816         3.287132        -0.426490
 H         3.296599         1.786051        -0.372216
 H         2.399138        -0.052990         0.709078
