19
Iteration:  3976charge 0 multiplicity 1
 O         4.311558         2.923883        -2.630141
 C         2.963151         2.458414        -2.405055
 C         2.050453         2.408544        -3.676602
 C         2.638240         1.160190        -3.103389
 C         1.853840         0.300375        -2.040121
 C         1.540356         1.213043        -0.880124
 C         2.608303         2.259255        -0.879177
 C         1.304425         0.435183         0.457706
 O         0.209630         0.224763         0.894554
 H         4.158073         3.720068        -3.155976
 H         1.079967         2.600548        -3.401235
 H         2.398747         2.825066        -4.619918
 H         3.542585         0.830957        -3.497520
 H         1.123964        -0.379196        -2.410840
 H         2.724954        -0.221447        -1.730910
 H         0.523515         1.706115        -0.963565
 H         2.327789         3.291801        -0.642881
 H         3.602991         2.100328        -0.363381
 H         2.178812         0.326355         1.204555
