19
Iteration:  4826charge 0 multiplicity 1
 O         4.251007         2.892954        -2.429661
 C         2.988036         2.387307        -2.435190
 C         2.128947         2.489805        -3.608174
 C         2.711056         1.132145        -3.134559
 C         1.956279         0.164240        -2.136377
 C         1.334596         1.060980        -1.031239
 C         2.297577         2.290100        -1.030805
 C         1.302785         0.414650         0.293267
 O         0.502240         0.536172         1.173173
 H         4.488390         3.805880        -2.419962
 H         1.050794         2.627306        -3.502457
 H         2.591458         3.064736        -4.470765
 H         3.453560         0.694055        -3.864469
 H         1.127261        -0.289704        -2.776638
 H         2.592148        -0.552902        -1.658372
 H         0.316848         1.354881        -1.414102
 H         1.849741         3.237851        -0.682667
 H         3.062148         2.087247        -0.238882
 H         2.299316        -0.156421         0.470849
