19
Iteration:  2688
 O         4.346761         2.895283        -2.615666
 C         3.117095         2.336670        -2.384583
 C         1.997260         2.353078        -3.427281
 C         2.561101         1.012846        -3.008259
 C         1.796234         0.305557        -1.998691
 C         1.293518         1.433356        -0.958247
 C         2.593807         2.475586        -0.904668
 C         1.338345         0.513659         0.210608
 O         0.411772         0.101479         0.812399
 H         4.493878         3.879308        -2.577092
 H         1.082836         2.831547        -3.073404
 H         2.300651         2.719818        -4.466923
 H         3.184544         0.283943        -3.659639
 H         0.931190        -0.078673        -2.489905
 H         2.422258        -0.484483        -1.470129
 H         0.283973         1.888823        -1.018979
 H         2.470363         3.594130        -0.614640
 H         3.440633         2.039452        -0.282715
 H         2.398565         0.205104         0.483079
