19
Iteration:   277charge 0 multiplicity 1
 O         4.168460         3.076592        -2.523780
 C         2.930993         2.402075        -2.322301
 C         2.155493         2.496896        -3.526024
 C         2.748841         1.124225        -3.116299
 C         1.749988         0.314147        -2.322853
 C         1.492786         1.077692        -0.961970
 C         2.448878         2.254172        -0.893115
 C         1.382980         0.216033         0.332456
 O         0.449139         0.504024         1.085858
 H         4.707903         2.447891        -3.067589
 H         0.957657         2.552392        -3.675448
 H         2.529934         3.129923        -4.461221
 H         3.631660         0.754944        -3.642666
 H         0.861371         0.112152        -2.882952
 H         2.147106        -0.645301        -2.054611
 H         0.512409         1.481603        -0.920856
 H         1.920902         3.046101        -0.327215
 H         3.389252         1.933101        -0.465818
 H         2.054461        -0.701191         0.568149
