19
Iteration:   960charge 0 multiplicity 1
 O         4.334964         2.740796        -2.597609
 C         2.964550         2.427902        -2.322998
 C         2.049393         2.591757        -3.474402
 C         2.616316         1.212537        -3.111891
 C         1.737664         0.359109        -2.164700
 C         1.335551         1.354049        -0.957774
 C         2.593094         2.350425        -0.870721
 C         1.399788         0.436803         0.324550
 O         0.450821         0.032226         0.906951
 H         4.320026         3.617579        -3.037740
 H         0.936166         2.736358        -3.297295
 H         2.517510         3.059776        -4.368957
 H         3.256816         0.660007        -3.756103
 H         0.702723        -0.048871        -2.541426
 H         2.374710        -0.348975        -1.656063
 H         0.283226         1.804636        -0.953424
 H         2.412413         3.357456        -0.397826
 H         3.352791         2.006525        -0.178393
 H         2.431903        -0.010639         0.502204
