19
Iteration:  3073charge 0 multiplicity 1
 O         4.326913         3.002493        -2.460547
 C         3.002438         2.431096        -2.362583
 C         2.111330         2.394994        -3.592838
 C         2.700597         1.144402        -3.145767
 C         1.860632         0.224730        -2.232895
 C         1.323202         1.058103        -1.117473
 C         2.360604         2.301099        -0.943351
 C         1.280817         0.263232         0.272321
 O         0.552461         0.563148         1.218172
 H         4.267849         3.967561        -2.198944
 H         0.954176         2.388728        -3.623791
 H         2.635519         2.763516        -4.493311
 H         3.570653         0.759714        -3.743226
 H         1.020822        -0.276012        -2.745093
 H         2.357578        -0.597165        -1.685236
 H         0.272895         1.562407        -1.278499
 H         1.694455         3.145857        -0.528304
 H         3.125900         2.111220        -0.280296
 H         1.878952        -0.671188         0.266004
