19
Iteration:  2162
 O         4.244672         3.075125        -2.721393
 C         3.135794         2.385872        -2.345034
 C         2.063187         2.483826        -3.255900
 C         2.539449         1.102943        -3.062175
 C         1.850867         0.194957        -2.067129
 C         1.465653         1.220479        -1.040310
 C         2.591401         2.271285        -0.911279
 C         1.317708         0.538844         0.317191
 O         0.291171         0.237366         0.862565
 H         5.041438         2.544299        -2.704384
 H         1.027617         2.514410        -3.066140
 H         2.251685         2.870913        -4.276985
 H         3.166948         0.853374        -3.896310
 H         1.009882        -0.443973        -2.618822
 H         2.515229        -0.656898        -1.744609
 H         0.533624         1.564979        -1.422352
 H         2.165599         3.209655        -0.454052
 H         3.362051         1.883331        -0.277683
 H         2.291658         0.298226         0.904042
