19
Iteration:  4427
 O         4.306057         2.937879        -2.555080
 C         3.068349         2.369161        -2.358864
 C         2.032206         2.408342        -3.505269
 C         2.668205         1.098957        -3.037322
 C         1.832082         0.215158        -2.093120
 C         1.427389         1.254141        -1.031943
 C         2.492054         2.376525        -0.963586
 C         1.341924         0.443944         0.244537
 O         0.393514         0.351629         1.024291
 H         4.158325         3.870432        -2.388770
 H         0.897187         2.500082        -3.462441
 H         2.465101         2.716598        -4.410726
 H         3.424924         0.554324        -3.832013
 H         0.864876        -0.140995        -2.498271
 H         2.388785        -0.727335        -1.677791
 H         0.333290         1.490945        -1.360678
 H         1.952081         3.238030        -0.601759
 H         3.259256         2.139146        -0.219914
 H         2.236632        -0.257034         0.227190
