19
Iteration:  1988charge 0 multiplicity 1
 O         4.345141         2.883096        -2.503609
 C         2.999926         2.398353        -2.343309
 C         2.104976         2.608883        -3.605227
 C         2.655626         1.176030        -3.157361
 C         1.757989         0.276519        -2.285023
 C         1.274564         1.206509        -0.947040
 C         2.397715         2.325538        -1.016815
 C         1.403078         0.392934         0.316202
 O         0.516147         0.240084         1.162751
 H         4.884656         2.397440        -1.828242
 H         1.055688         2.690990        -3.410715
 H         2.469555         3.184608        -4.410896
 H         3.335876         0.590023        -3.760864
 H         0.820615         0.098222        -2.862510
 H         2.247261        -0.687293        -1.998696
 H         0.258938         1.650162        -1.069982
 H         1.981336         3.349168        -0.706177
 H         3.208070         2.202352        -0.180336
 H         2.348990        -0.055426         0.479862
