19
Iteration:  2312
 O         4.257313         2.809898        -2.492654
 C         2.904637         2.456996        -2.382931
 C         2.102629         2.491832        -3.712717
 C         2.604849         1.086103        -3.190639
 C         1.873653         0.262735        -2.178656
 C         1.474993         1.244300        -0.973378
 C         2.462791         2.362453        -0.920011
 C         1.383026         0.451679         0.340933
 O         0.383525         0.274380         1.097677
 H         4.383815         3.440266        -1.770166
 H         1.080575         2.996519        -3.786722
 H         2.775775         2.926892        -4.414695
 H         3.392328         0.522307        -3.732697
 H         1.051240        -0.305383        -2.432666
 H         2.645882        -0.478212        -1.708587
 H         0.477040         1.755954        -0.971030
 H         1.942458         3.248353        -0.578176
 H         3.406833         2.192059        -0.398883
 H         2.419741         0.080620         0.651808
