19
Iteration:   234
 O         4.324190         2.969882        -2.218546
 C         3.019860         2.386654        -2.392296
 C         2.074473         2.525990        -3.450559
 C         2.577742         1.087978        -3.185846
 C         1.860972         0.186012        -2.255962
 C         1.234898         1.162186        -1.152925
 C         2.283577         2.279916        -1.095226
 C         1.337588         0.383007         0.183292
 O         0.687875         0.450511         1.203080
 H         4.922993         2.825570        -3.002937
 H         1.003021         2.997256        -3.195397
 H         2.245027         3.095540        -4.445677
 H         3.252943         0.681581        -3.916044
 H         1.115040        -0.563619        -2.508105
 H         2.645342        -0.406935        -1.810831
 H         0.232207         1.392385        -1.416797
 H         1.989219         3.314650        -0.768165
 H         2.910994         1.958324        -0.271108
 H         2.340841        -0.147281         0.126734
