19
Iteration:  2022charge 0 multiplicity 1
 O         4.364009         3.089531        -2.347531
 C         3.051131         2.336104        -2.434599
 C         2.180035         2.520117        -3.684765
 C         2.453960         1.161447        -3.142166
 C         1.669868         0.295080        -2.149625
 C         1.328341         1.211575        -0.903380
 C         2.470328         2.310539        -0.985596
 C         1.453837         0.326315         0.290323
 O         0.478901         0.252119         1.069315
 H         4.849826         2.404790        -2.812597
 H         1.158758         2.878036        -3.735953
 H         2.866315         2.736116        -4.579896
 H         2.907099         0.532356        -3.849545
 H         0.725553        -0.106596        -2.535623
 H         2.314203        -0.613092        -2.097043
 H         0.245431         1.628126        -0.837155
 H         1.899240         3.297680        -0.880242
 H         3.397246         2.090689        -0.261773
 H         2.376654        -0.231368         0.504183
