19
Iteration:  1819charge 0 multiplicity 1
 O         4.364060         2.876977        -2.612243
 C         3.016394         2.443226        -2.332395
 C         2.027328         2.643505        -3.415636
 C         2.488686         1.297254        -3.230600
 C         1.823542         0.279235        -2.219199
 C         1.461398         1.047677        -0.987553
 C         2.624076         2.133291        -0.930206
 C         1.315452         0.375927         0.354276
 O         0.332270         0.323495         1.051128
 H         4.472690         3.669119        -2.036828
 H         0.919521         2.781324        -3.173175
 H         2.281387         3.186098        -4.361981
 H         3.162336         0.874689        -3.887144
 H         1.031516        -0.416372        -2.608799
 H         2.745702        -0.353570        -2.072691
 H         0.545034         1.605285        -1.089594
 H         2.278961         3.047183        -0.444889
 H         3.699839         2.009933        -0.473174
 H         2.150096        -0.248314         0.592113
