19
Iteration:  3905charge 0 multiplicity 1
 O         4.266210         2.903058        -2.510113
 C         3.031218         2.360660        -2.412476
 C         2.040909         2.474346        -3.565103
 C         2.702933         1.074081        -3.120478
 C         1.873113         0.259317        -2.138044
 C         1.463909         1.191169        -0.995126
 C         2.482682         2.303832        -0.929432
 C         1.322572         0.569780         0.362504
 O         0.334266         0.265658         1.013729
 H         4.191605         3.607659        -3.196220
 H         0.978687         2.673703        -3.311034
 H         2.385520         3.031847        -4.487681
 H         3.708180         0.758828        -3.576888
 H         0.899309        -0.142947        -2.511573
 H         2.464730        -0.567220        -1.675166
 H         0.587096         1.662769        -1.304401
 H         1.890513         3.110053        -0.452649
 H         3.439033         2.146268        -0.408927
 H         2.351871         0.222741         0.779875
