19
Iteration:   717
 O         4.316173         2.879239        -2.475224
 C         3.051479         2.402250        -2.386109
 C         1.864285         2.631635        -3.360481
 C         2.508158         1.224787        -3.158332
 C         1.925723         0.280364        -2.205339
 C         1.556886         1.128442        -0.974122
 C         2.578836         2.177867        -0.923720
 C         1.348915         0.247121         0.270447
 O         0.366102         0.465941         0.974259
 H         4.289277         3.695077        -3.015692
 H         0.930521         2.844787        -3.105592
 H         2.103024         3.034476        -4.285139
 H         2.988826         0.810515        -4.033124
 H         1.034852        -0.343005        -2.495376
 H         2.765103        -0.476424        -2.057996
 H         0.590940         1.520032        -1.143906
 H         2.258246         3.109089        -0.482772
 H         3.594199         1.846514        -0.560429
 H         2.032806        -0.661604         0.387179
