19
Iteration:  1799charge 0 multiplicity 1
 O         4.306474         2.793821        -2.570489
 C         3.022275         2.424511        -2.332387
 C         1.901052         2.757967        -3.486148
 C         2.630613         1.259863        -3.193939
 C         1.929399         0.264778        -2.290119
 C         1.481913         1.151376        -0.950197
 C         2.604920         2.157412        -0.883324
 C         1.297254         0.354175         0.380614
 O         0.317576         0.290844         1.053449
 H         4.319913         3.639930        -3.003105
 H         0.845081         3.101876        -3.409253
 H         2.318775         3.199540        -4.455413
 H         3.199798         0.843432        -3.973261
 H         0.908387        -0.021201        -2.683645
 H         2.584063        -0.599282        -2.105870
 H         0.513719         1.533384        -1.101310
 H         2.579451         3.050281        -0.219203
 H         3.514518         1.640832        -0.378261
 H         2.333358        -0.182186         1.004266
