19
Iteration:  3718
 O         4.221660         2.955330        -2.428869
 C         3.012165         2.340619        -2.296214
 C         2.017604         2.397338        -3.389026
 C         2.796795         1.066626        -3.128113
 C         1.861793         0.226410        -2.206249
 C         1.353307         1.162859        -1.080989
 C         2.408018         2.295906        -0.859425
 C         1.365244         0.412307         0.136129
 O         0.505917         0.565240         0.999087
 H         4.263891         3.402575        -3.323687
 H         0.966627         2.293847        -3.184937
 H         2.212006         2.816840        -4.327273
 H         3.270125         0.660813        -3.967786
 H         0.948027        -0.217395        -2.610957
 H         2.367083        -0.566730        -1.663799
 H         0.366247         1.450301        -1.232846
 H         2.044230         3.291671        -0.533382
 H         3.377849         1.891572        -0.392338
 H         2.283261        -0.159236         0.341766
