19
Iteration:  1012
 O         4.359886         2.934931        -2.506627
 C         3.032609         2.325156        -2.396714
 C         2.055611         2.639491        -3.412563
 C         2.486009         1.162282        -3.206852
 C         1.743521         0.286827        -2.235024
 C         1.523402         1.276168        -0.826636
 C         2.574103         2.293974        -0.970466
 C         1.412955         0.449189         0.380537
 O         0.331549         0.092484         0.903359
 H         4.346744         3.316573        -3.425746
 H         1.094470         2.889409        -2.921757
 H         2.267397         3.109158        -4.327588
 H         3.204084         0.593424        -3.882143
 H         0.716264        -0.058447        -2.499934
 H         2.343545        -0.611699        -1.986691
 H         0.508583         1.668299        -0.884642
 H         2.266191         3.275749        -0.668738
 H         3.426621         2.036044        -0.331460
 H         2.340857         0.146076         0.926333
