19
Iteration:  2000
 O         4.286003         2.966210        -2.430720
 C         3.038378         2.380231        -2.478064
 C         2.209638         2.607514        -3.600146
 C         2.591425         1.133062        -3.214825
 C         1.657209         0.301135        -2.220898
 C         1.421548         1.206050        -0.991188
 C         2.385388         2.371927        -0.975314
 C         1.394033         0.353935         0.358897
 O         0.483098         0.218335         1.180981
 H         4.875593         2.218183        -2.113241
 H         1.186576         2.920130        -3.485145
 H         2.681692         2.833845        -4.580020
 H         3.267045         0.738323        -3.919993
 H         0.716698        -0.154699        -2.545805
 H         2.270200        -0.584251        -1.962404
 H         0.344490         1.591074        -1.067483
 H         1.883106         3.356815        -0.696666
 H         3.310352         2.076456        -0.308128
 H         2.302316        -0.181331         0.472598
