19
Iteration:   512charge 0 multiplicity 1
 O         4.383428         2.681662        -2.619843
 C         3.032405         2.390497        -2.445658
 C         2.054668         2.597461        -3.512338
 C         2.547479         1.184423        -3.061682
 C         1.784787         0.416273        -1.993070
 C         1.317643         1.377278        -0.973616
 C         2.432988         2.483046        -0.958829
 C         1.404250         0.493573         0.355208
 O         0.480458        -0.092899         0.914718
 H         4.534729         3.613375        -2.433142
 H         1.020599         2.932471        -3.397974
 H         2.468740         2.856593        -4.484007
 H         3.229592         0.692781        -3.798160
 H         1.052922        -0.311577        -2.386763
 H         2.542520        -0.206296        -1.580907
 H         0.288925         1.818554        -1.028382
 H         2.075627         3.504238        -0.695531
 H         3.155028         2.086078        -0.251920
 H         2.435254         0.270443         0.744975
