19
Iteration:  3510
 O         4.365953         2.939032        -2.606007
 C         3.116050         2.280326        -2.349054
 C         2.032715         2.406280        -3.374526
 C         2.683608         1.020252        -3.000830
 C         1.681615         0.288985        -2.038122
 C         1.378803         1.366451        -0.970999
 C         2.451982         2.403688        -0.938310
 C         1.382658         0.550762         0.209116
 O         0.450836         0.152043         0.819812
 H         4.044141         3.851547        -2.577026
 H         0.923939         2.477009        -3.174236
 H         2.336389         2.677947        -4.357744
 H         3.402732         0.514973        -3.754555
 H         0.705530        -0.114210        -2.320461
 H         2.370481        -0.445871        -1.522150
 H         0.319885         1.789274        -1.333805
 H         1.919436         3.367077        -0.845322
 H         3.228263         2.342780        -0.218712
 H         2.475063         0.279909         0.562596
