19
Iteration:  3810charge 0 multiplicity 1
 O         4.362995         2.916731        -2.461481
 C         2.959528         2.405156        -2.326106
 C         2.082691         2.417387        -3.512225
 C         2.661371         1.079532        -3.051135
 C         1.810226         0.242594        -2.205106
 C         1.291008         1.109520        -1.033648
 C         2.346160         2.295880        -1.009428
 C         1.428709         0.429410         0.250595
 O         0.500848         0.479185         1.032996
 H         4.267146         3.827722        -2.708159
 H         1.007969         2.675042        -3.479946
 H         2.537756         2.675608        -4.519446
 H         3.688302         0.911863        -3.497052
 H         1.131320        -0.301241        -2.837443
 H         2.464728        -0.471562        -1.654502
 H         0.159738         1.519917        -1.042851
 H         1.969772         3.287965        -0.637846
 H         3.096753         1.886084        -0.332447
 H         2.415924        -0.090937         0.546566
