19
Iteration:  1365
 O         4.285166         2.895088        -2.542808
 C         3.007610         2.401789        -2.347992
 C         1.959132         2.561166        -3.457882
 C         2.528901         1.237411        -3.165923
 C         1.799967         0.313567        -2.306476
 C         1.388536         1.123654        -0.960770
 C         2.601086         2.280576        -0.846437
 C         1.396499         0.288963         0.274698
 O         0.468516         0.359376         0.996786
 H         4.829961         2.743891        -1.748867
 H         1.067082         2.824791        -3.007690
 H         2.317987         3.231795        -4.258314
 H         3.095292         0.906467        -4.079631
 H         0.907726        -0.217248        -2.614589
 H         2.521251        -0.529232        -1.959154
 H         0.467396         1.777148        -1.053259
 H         2.312850         3.296698        -0.479274
 H         3.426025         1.776033        -0.300663
 H         2.326558        -0.357228         0.295167
