19
Iteration:  3673
 O         4.314416         3.059888        -2.492188
 C         3.017926         2.477841        -2.491668
 C         2.102400         2.542215        -3.641367
 C         2.572056         1.052422        -3.179113
 C         1.926771         0.168903        -2.171588
 C         1.421830         1.033873        -0.976125
 C         2.530285         2.218543        -0.906073
 C         1.273890         0.315247         0.396164
 O         0.317315         0.481684         1.164596
 H         4.263451         3.930075        -2.937342
 H         1.141347         3.004512        -3.632646
 H         2.716517         2.807428        -4.530119
 H         3.355937         0.455634        -3.711597
 H         1.052075        -0.176613        -2.748324
 H         2.461065        -0.686782        -1.836793
 H         0.550216         1.452787        -1.307218
 H         2.032573         3.100806        -0.512102
 H         3.453515         1.854604        -0.312933
 H         2.233803        -0.103129         0.750095
