19
Iteration:   464
 O         4.310254         2.994346        -2.536289
 C         3.021402         2.362598        -2.405421
 C         2.081783         2.475772        -3.517520
 C         2.598936         1.102185        -3.059196
 C         1.615879         0.373444        -2.127706
 C         1.498557         1.274826        -0.816663
 C         2.605943         2.331062        -0.987824
 C         1.423307         0.537583         0.441069
 O         0.398648        -0.006322         0.821209
 H         4.428493         2.977870        -3.520627
 H         1.082861         2.791409        -3.206539
 H         2.350117         2.925210        -4.453078
 H         3.219440         0.518750        -3.743066
 H         0.621325         0.331158        -2.578425
 H         1.898790        -0.666484        -2.104498
 H         0.539558         1.757701        -0.909351
 H         2.127834         3.279291        -0.775167
 H         3.493589         2.124947        -0.418943
 H         2.265800         0.659447         1.165007
