19
Iteration:  4953
 O         4.322463         2.939287        -2.526929
 C         3.085842         2.373646        -2.353615
 C         2.070660         2.266509        -3.526365
 C         2.689677         1.091414        -3.035149
 C         1.839143         0.234202        -2.167800
 C         1.376089         1.244614        -1.019739
 C         2.338111         2.386541        -0.962418
 C         1.427727         0.453559         0.304129
 O         0.406946         0.384581         1.004310
 H         4.111036         3.898243        -2.699343
 H         0.984254         2.397950        -3.247852
 H         2.399152         2.848123        -4.433067
 H         3.443166         0.603300        -3.751475
 H         0.834980         0.030753        -2.507044
 H         2.510628        -0.611022        -1.639381
 H         0.406365         1.554983        -1.242105
 H         1.715138         3.235650        -0.832013
 H         3.084961         2.314921        -0.191582
 H         2.433748        -0.054929         0.372392
