19
Iteration:  1591
 O         4.425941         2.897184        -2.660616
 C         3.130296         2.418985        -2.410382
 C         2.146109         2.694483        -3.515321
 C         2.541663         1.265893        -3.038961
 C         1.537734         0.363566        -2.120356
 C         1.407227         1.258661        -0.806255
 C         2.628285         2.265092        -0.965016
 C         1.334042         0.363753         0.389812
 O         0.385095        -0.057194         0.977215
 H         4.307673         3.403390        -3.527297
 H         1.049530         2.880161        -3.196507
 H         2.331256         3.009193        -4.629172
 H         3.204919         0.861837        -3.815387
 H         0.523923         0.216685        -2.632856
 H         2.052828        -0.538412        -1.993518
 H         0.434469         1.679352        -1.049280
 H         2.192634         3.286817        -0.792665
 H         3.288900         2.105676        -0.147798
 H         2.455743         0.083331         0.656120
