19
Iteration:  4227charge 0 multiplicity 1
 O         4.343133         2.926193        -2.427790
 C         3.019980         2.420367        -2.335374
 C         2.024485         2.409659        -3.574107
 C         2.618326         1.081741        -3.106046
 C         1.832541         0.205819        -2.157253
 C         1.389971         1.131535        -1.048789
 C         2.418414         2.305877        -0.927744
 C         1.393569         0.541463         0.274982
 O         0.463130         0.380786         1.000823
 H         4.508981         3.643888        -3.056796
 H         0.920186         2.420990        -3.532917
 H         2.376029         2.881833        -4.444655
 H         3.389386         0.705815        -3.834975
 H         0.862810        -0.168835        -2.536123
 H         2.513437        -0.528009        -1.663629
 H         0.381117         1.666965        -1.103826
 H         1.801476         3.164547        -0.560308
 H         3.059299         2.118935        -0.102440
 H         2.439436         0.032091         0.496841
