19
Iteration:   801
 O         4.298602         2.906093        -2.466537
 C         2.976241         2.499987        -2.395859
 C         2.016612         2.568043        -3.513846
 C         2.520105         1.166168        -3.137724
 C         1.742916         0.262168        -2.153290
 C         1.418163         1.186333        -0.952213
 C         2.643999         2.184176        -0.961435
 C         1.422917         0.345076         0.278085
 O         0.418013         0.308221         0.971885
 H         4.276170         3.881474        -2.513043
 H         1.001475         3.116359        -3.340273
 H         2.581485         2.867849        -4.388017
 H         3.313378         0.699630        -3.686231
 H         0.824240        -0.081868        -2.535644
 H         2.351633        -0.595815        -1.883030
 H         0.443480         1.684534        -0.991802
 H         2.513609         3.031076        -0.304543
 H         3.557182         1.761079        -0.594884
 H         2.292172        -0.331374         0.519628
