19
Iteration:  4029
 O         4.362648         3.018863        -2.660083
 C         3.119430         2.271200        -2.363511
 C         1.962819         2.377463        -3.378423
 C         2.646506         1.019397        -3.159943
 C         1.874551         0.239010        -1.979441
 C         1.430829         1.308796        -0.992809
 C         2.507478         2.345782        -0.896125
 C         1.317644         0.654344         0.337169
 O         0.327536         0.185693         0.823476
 H         4.310358         3.743859        -2.016474
 H         0.909763         2.413317        -3.141717
 H         2.066580         2.991206        -4.300479
 H         3.022152         0.481982        -3.934046
 H         1.035532        -0.283166        -2.411313
 H         2.567053        -0.591163        -1.613354
 H         0.414894         1.602466        -1.297275
 H         2.210592         3.446871        -0.904396
 H         3.339614         2.004551        -0.164906
 H         2.288110         0.329751         0.689546
