19
Iteration:  4416charge 0 multiplicity 1
 O         4.307924         2.915533        -2.515936
 C         2.951926         2.431126        -2.421757
 C         2.027923         2.452426        -3.561306
 C         2.672995         1.101343        -3.031789
 C         1.897250         0.263678        -2.118383
 C         1.444674         1.158473        -0.983444
 C         2.503555         2.312736        -1.017427
 C         1.312705         0.402908         0.293914
 O         0.369185         0.378576         1.049726
 H         4.339228         3.902025        -2.430659
 H         0.906742         2.604019        -3.506229
 H         2.503850         2.807255        -4.428034
 H         3.515891         0.501735        -3.642192
 H         1.084682        -0.128087        -2.752319
 H         2.452228        -0.683419        -1.725433
 H         0.454240         1.741715        -1.055133
 H         2.185210         3.299410        -0.733169
 H         3.394727         2.061565        -0.446634
 H         2.110102        -0.276241         0.597096
