19
Iteration:   316
 O         4.209833         3.187416        -2.569766
 C         3.076313         2.371659        -2.403093
 C         2.004220         2.496963        -3.412314
 C         2.675117         1.084926        -3.162288
 C         1.833875         0.251015        -2.183033
 C         1.386237         1.187567        -1.034010
 C         2.638976         2.128822        -0.996182
 C         1.321669         0.422903         0.312016
 O         0.351494         0.346048         1.073267
 H         4.836732         2.942155        -1.856775
 H         1.108417         2.528594        -2.971301
 H         2.254291         2.898812        -4.310803
 H         3.194692         0.569845        -4.006588
 H         0.945508        -0.264144        -2.641364
 H         2.487265        -0.524943        -1.662058
 H         0.405582         1.702656        -1.252678
 H         2.490106         3.084958        -0.469055
 H         3.442063         1.501893        -0.474867
 H         2.126053        -0.278220         0.464871
