19
Iteration:   903charge 0 multiplicity 1
 O         4.379673         2.908504        -2.483246
 C         3.088921         2.346912        -2.466044
 C         2.048230         2.551639        -3.554876
 C         2.469765         1.194920        -3.129020
 C         1.682984         0.371080        -2.123396
 C         1.476881         1.346364        -0.857660
 C         2.552370         2.282796        -1.046447
 C         1.372709         0.386630         0.321989
 O         0.440233         0.053022         0.967457
 H         4.269492         3.520348        -1.724131
 H         1.213580         3.082332        -3.167709
 H         2.329232         2.879755        -4.511746
 H         3.098904         0.620415        -3.912741
 H         0.624032         0.123826        -2.364134
 H         2.091970        -0.580592        -1.860088
 H         0.498920         1.737505        -0.880158
 H         2.120666         3.240267        -0.924970
 H         3.398667         2.097955        -0.435763
 H         2.454758         0.125571         0.627593
