19
Iteration:  4834charge 0 multiplicity 1
 O         4.322102         2.907031        -2.423256
 C         2.967074         2.378764        -2.324988
 C         2.097176         2.453551        -3.554914
 C         2.683158         1.063204        -3.135022
 C         1.940125         0.180593        -2.198996
 C         1.383097         1.089514        -1.111080
 C         2.267861         2.314702        -1.043453
 C         1.325453         0.459670         0.272472
 O         0.496640         0.522150         1.185493
 H         4.321578         3.868992        -2.391506
 H         0.988861         2.695502        -3.443033
 H         2.434420         2.817923        -4.599519
 H         3.455483         0.638867        -3.897412
 H         1.142949        -0.282842        -2.758236
 H         2.683174        -0.477009        -1.769063
 H         0.362046         1.438290        -1.221535
 H         1.700028         3.190053        -0.797950
 H         3.075112         2.166293        -0.245802
 H         2.287719        -0.193174         0.423136
