19
Iteration:  1364charge 0 multiplicity 1
 O         4.284624         2.895756        -2.543490
 C         3.010625         2.401240        -2.346855
 C         1.957912         2.562920        -3.459736
 C         2.537066         1.239756        -3.160475
 C         1.793631         0.303701        -2.297421
 C         1.378183         1.125789        -0.963819
 C         2.604058         2.284215        -0.853945
 C         1.389698         0.289649         0.268182
 O         0.475125         0.357105         0.997509
 H         4.851738         2.719596        -1.746472
 H         1.048450         2.847957        -2.991979
 H         2.297717         3.252662        -4.269713
 H         3.096142         0.951429        -4.072958
 H         0.904851        -0.220138        -2.604026
 H         2.552528        -0.557898        -1.939361
 H         0.464064         1.773153        -1.082575
 H         2.331317         3.316768        -0.483680
 H         3.420014         1.750005        -0.279779
 H         2.334821        -0.356692         0.302780
