19
Iteration:   920
 O         4.487895         2.948541        -2.587089
 C         3.126916         2.412062        -2.407086
 C         2.031881         2.551961        -3.449641
 C         2.507736         1.079431        -3.117823
 C         1.545882         0.364257        -2.202191
 C         1.370226         1.214171        -0.943222
 C         2.556316         2.436412        -0.973042
 C         1.423396         0.409103         0.429885
 O         0.429049         0.034984         0.946075
 H         4.658257         3.676106        -1.969014
 H         0.960069         2.722058        -3.268040
 H         2.370884         2.926158        -4.489856
 H         2.956633         0.583391        -3.932119
 H         0.712454         0.042480        -2.806041
 H         2.083201        -0.589777        -1.848425
 H         0.311227         1.666838        -1.015387
 H         2.225450         3.494415        -0.621812
 H         3.418876         2.124966        -0.257745
 H         2.406099         0.005772         0.750440
