19
Iteration:    19charge 0 multiplicity 1
 O         4.382020         2.805629        -2.441515
 C         2.918228         2.396215        -2.326044
 C         1.900657         2.459044        -3.561880
 C         2.615399         1.178982        -3.074132
 C         1.990611         0.209048        -2.065398
 C         1.301151         1.197137        -1.038457
 C         2.391791         2.366806        -0.950335
 C         1.425275         0.483147         0.220545
 O         0.491789         0.376380         0.953912
 H         4.503195         3.485507        -3.100054
 H         0.785258         2.536065        -3.530940
 H         2.269692         2.995924        -4.422195
 H         3.422803         0.813286        -3.668489
 H         1.376276        -0.643573        -2.413625
 H         2.881642        -0.128691        -1.533603
 H         0.188469         1.556482        -1.183846
 H         2.077532         3.354047        -0.558724
 H         3.143067         1.846402        -0.346477
 H         2.369176        -0.204288         0.444684
