19
Iteration:  4654charge 0 multiplicity 1
 O         4.297317         2.887375        -2.687732
 C         3.091984         2.372813        -2.365344
 C         1.967755         2.408210        -3.355011
 C         2.703525         1.125880        -3.060926
 C         1.911666         0.187466        -2.045487
 C         1.360469         1.195122        -1.005295
 C         2.496451         2.337617        -0.914178
 C         1.384049         0.580163         0.330759
 O         0.318287         0.348973         0.849773
 H         4.162403         3.856436        -2.787304
 H         0.990232         2.475493        -3.009929
 H         2.237611         2.849438        -4.328779
 H         3.539825         0.597012        -3.667834
 H         1.131465        -0.371044        -2.597189
 H         2.670648        -0.635476        -1.755446
 H         0.381975         1.665672        -1.132170
 H         1.909765         3.265819        -0.493460
 H         3.289331         2.006651        -0.225923
 H         2.360276         0.028927         0.715359
