19
Iteration:  4626
 O         4.320076         2.950639        -2.602821
 C         3.089080         2.387229        -2.464537
 C         2.015701         2.430419        -3.579253
 C         2.675692         1.105556        -3.083716
 C         1.878375         0.197637        -2.038851
 C         1.432749         1.239099        -0.941500
 C         2.588997         2.367808        -0.923991
 C         1.276911         0.559797         0.410895
 O         0.266465         0.193287         0.986359
 H         4.188533         3.828957        -3.045895
 H         0.941107         2.581244        -3.335819
 H         2.382564         2.658531        -4.589910
 H         3.257252         0.583532        -3.735850
 H         0.987018        -0.151622        -2.551758
 H         2.500841        -0.596181        -1.770708
 H         0.519507         1.770250        -1.231600
 H         2.156244         3.241273        -0.522064
 H         3.472878         2.013622        -0.350957
 H         2.233144         0.319865         0.784380
