19
Iteration:  3312
 O         4.320698         2.945754        -2.579458
 C         3.048941         2.367321        -2.351495
 C         2.027818         2.481726        -3.474189
 C         2.653841         1.107934        -3.005972
 C         1.800498         0.169796        -2.125406
 C         1.451255         1.235622        -1.086647
 C         2.522756         2.273346        -0.874986
 C         1.361208         0.587196         0.312931
 O         0.363769         0.262836         0.925955
 H         4.067506         3.899460        -2.774168
 H         1.014345         2.426290        -3.086228
 H         2.096269         2.900657        -4.554526
 H         3.296163         0.727418        -3.712704
 H         0.926044        -0.374065        -2.424853
 H         2.416681        -0.706781        -1.870468
 H         0.517548         1.773599        -1.470917
 H         2.069703         3.257061        -0.429663
 H         3.442248         1.813054        -0.370558
 H         2.324761         0.276150         0.750879
