19
Iteration:  2791charge 0 multiplicity 1
 O         4.350148         2.702485        -2.531470
 C         2.991772         2.371352        -2.365600
 C         2.046200         2.406517        -3.486235
 C         2.622591         1.084298        -3.036457
 C         1.774091         0.351557        -2.051027
 C         1.278535         1.414797        -1.000672
 C         2.469558         2.407984        -0.942632
 C         1.373829         0.722685         0.277190
 O         0.535524        -0.007201         0.834875
 H         4.651537         3.599710        -2.306907
 H         1.100607         2.738955        -3.071002
 H         2.252314         3.044947        -4.306896
 H         3.278582         0.584102        -3.721936
 H         0.810023        -0.225104        -2.467221
 H         2.482970        -0.500819        -1.775647
 H         0.380208         1.905536        -1.385783
 H         2.057244         3.388681        -0.679945
 H         3.333149         2.232219        -0.347167
 H         2.321737         0.982522         0.799356
