19
Iteration:  3983charge 0 multiplicity 1
 O         4.303843         2.908438        -2.641937
 C         3.017647         2.499052        -2.436033
 C         2.042015         2.445332        -3.695988
 C         2.633074         1.167312        -3.056553
 C         1.906469         0.272222        -2.079477
 C         1.531239         1.219794        -0.852402
 C         2.617636         2.274168        -0.896826
 C         1.315139         0.478183         0.464862
 O         0.180971         0.201067         0.911586
 H         4.212170         3.837111        -3.026707
 H         0.856903         2.461110        -3.645206
 H         2.341385         2.894605        -4.640994
 H         3.535966         0.684241        -3.484516
 H         0.978946        -0.331269        -2.264332
 H         2.630056        -0.577188        -1.697370
 H         0.547446         1.612461        -1.025381
 H         2.089559         3.097549        -0.239139
 H         3.607333         1.873771        -0.474282
 H         2.194389         0.426967         1.138868
