19
Iteration:  1568charge 0 multiplicity 1
 O         4.395268         2.957342        -2.531770
 C         3.070717         2.389334        -2.374874
 C         2.057930         2.524942        -3.386350
 C         2.434533         1.121417        -3.169646
 C         1.610442         0.414943        -2.203465
 C         1.465518         1.298608        -0.825458
 C         2.635381         2.373223        -0.916943
 C         1.444593         0.346280         0.333719
 O         0.386679         0.062559         0.905130
 H         4.458285         2.921244        -3.489763
 H         1.025364         2.960615        -3.136881
 H         2.507937         3.073014        -4.354352
 H         2.921815         0.575415        -4.027282
 H         0.630856         0.220182        -2.779349
 H         2.131675        -0.503744        -2.046908
 H         0.488911         1.656419        -1.004159
 H         2.384824         3.354590        -0.464884
 H         3.365786         1.939920        -0.292115
 H         2.462574        -0.138724         0.478386
