19
Iteration:  2426
 O         4.284638         3.036756        -2.327477
 C         3.099862         2.359694        -2.480767
 C         2.151282         2.519369        -3.724608
 C         2.618765         1.108374        -3.293640
 C         1.785911         0.269887        -2.221297
 C         1.309664         1.105407        -0.961962
 C         2.481296         2.290184        -0.993708
 C         1.312055         0.384239         0.371955
 O         0.452083         0.373494         1.290753
 H         4.819868         3.087172        -3.140100
 H         1.093824         2.764099        -3.620024
 H         2.691403         2.821382        -4.675654
 H         3.283978         0.608702        -3.972565
 H         0.808170        -0.238920        -2.590160
 H         2.403769        -0.544164        -1.908933
 H         0.274431         1.438198        -1.073682
 H         1.776837         3.166451        -0.844378
 H         3.277923         2.204714        -0.174548
 H         2.192382        -0.301985         0.587038
