19
Iteration:   126charge 0 multiplicity 1
 O         4.242144         3.068528        -2.405476
 C         3.024440         2.375587        -2.329451
 C         2.142962         2.314564        -3.630638
 C         2.717288         1.075970        -2.970619
 C         1.700610         0.348680        -2.207241
 C         1.182960         1.241283        -1.113762
 C         2.268089         2.314881        -1.020134
 C         1.332520         0.356532         0.106460
 O         0.788335         0.354193         1.187501
 H         4.781167         3.070834        -1.588909
 H         1.027836         2.634257        -3.544432
 H         2.874434         2.457498        -4.417424
 H         3.471901         0.584909        -3.557606
 H         0.882173         0.168081        -2.987007
 H         2.026243        -0.661392        -1.815108
 H         0.255229         1.772283        -1.324227
 H         1.911590         3.323044        -0.625259
 H         3.036779         1.950656        -0.270251
 H         2.339181        -0.377377        -0.057783
