19
Iteration:  1307
 O         4.293787         2.967305        -2.445480
 C         2.985462         2.366188        -2.367518
 C         2.055207         2.677972        -3.471421
 C         2.589715         1.150981        -3.192292
 C         1.723121         0.326172        -2.319414
 C         1.445666         1.110866        -0.956900
 C         2.515857         2.223149        -0.963393
 C         1.391521         0.348287         0.364059
 O         0.460199         0.293095         1.073222
 H         4.825186         2.522615        -3.114026
 H         0.904141         2.745225        -3.434669
 H         2.389804         3.303002        -4.279626
 H         3.318326         0.708798        -3.827229
 H         0.753773         0.035030        -2.720449
 H         2.422064        -0.627876        -2.169330
 H         0.577147         1.737215        -1.120764
 H         2.115434         3.166823        -0.539417
 H         3.382404         2.055950        -0.252055
 H         2.283301        -0.246056         0.638147
