19
Iteration:  1735charge 0 multiplicity 1
 O         4.310635         3.015193        -2.474904
 C         3.043800         2.351397        -2.401774
 C         1.977601         2.555843        -3.420156
 C         2.590244         1.125542        -3.114993
 C         1.634317         0.397298        -2.161154
 C         1.448570         1.297090        -0.921473
 C         2.706652         2.262049        -0.944249
 C         1.402170         0.375234         0.251335
 O         0.362108         0.130440         0.913594
 H         4.725694         2.472071        -3.180751
 H         1.024168         2.785235        -2.963976
 H         2.207903         2.983719        -4.402736
 H         3.116673         0.458568        -3.813206
 H         0.624459         0.102156        -2.511652
 H         2.250860        -0.436538        -1.858366
 H         0.524245         1.922559        -0.952392
 H         2.636363         3.294256        -0.499074
 H         3.531523         1.796269        -0.496017
 H         2.465755        -0.072390         0.543000
