19
Iteration:  3946
 O         4.367002         3.031274        -2.575724
 C         3.075031         2.360129        -2.403912
 C         2.010936         2.444920        -3.417255
 C         2.607271         1.051444        -3.036668
 C         1.857167         0.149317        -1.967211
 C         1.486707         1.292770        -0.981167
 C         2.551077         2.353496        -0.979787
 C         1.302024         0.467857         0.231318
 O         0.289907         0.245258         0.915833
 H         4.272250         3.655911        -3.349486
 H         1.068342         2.643742        -2.964418
 H         2.092602         2.746781        -4.487444
 H         3.222738         0.585800        -3.874547
 H         0.885488        -0.297601        -2.343669
 H         2.537258        -0.651341        -1.624004
 H         0.522789         1.776529        -1.330444
 H         2.190899         3.335547        -0.869786
 H         3.273050         2.202200        -0.234168
 H         2.258541         0.144254         0.627457
