19
Iteration:  3282
 O         4.333802         2.887761        -2.515876
 C         3.015809         2.358655        -2.384628
 C         1.960784         2.487752        -3.469750
 C         2.665508         1.151280        -3.162037
 C         1.916892         0.226865        -2.143480
 C         1.425295         1.170781        -1.047368
 C         2.498922         2.308103        -0.951471
 C         1.379320         0.398756         0.364057
 O         0.333575         0.420340         0.976075
 H         4.123003         3.802293        -2.381867
 H         0.938746         2.445000        -3.169205
 H         2.191019         3.108743        -4.365423
 H         3.129092         0.630955        -3.952864
 H         1.130547        -0.475309        -2.458919
 H         2.777468        -0.409607        -1.782631
 H         0.366876         1.531823        -1.284364
 H         2.137567         3.334720        -0.513116
 H         3.380887         2.036687        -0.333837
 H         2.312479        -0.153182         0.745298
