19
Iteration:   123
 O         4.228226         3.066939        -2.393961
 C         3.011124         2.361197        -2.326297
 C         2.143445         2.301767        -3.631636
 C         2.742288         1.092586        -2.978018
 C         1.692614         0.390589        -2.213249
 C         1.193056         1.215699        -1.102262
 C         2.269334         2.315538        -1.020852
 C         1.343249         0.377227         0.106824
 O         0.783304         0.355742         1.176140
 H         4.836797         2.937380        -1.664258
 H         1.060004         2.560000        -3.536800
 H         2.799190         2.492167        -4.486240
 H         3.499058         0.482040        -3.572419
 H         0.871533         0.154311        -2.875108
 H         2.055195        -0.575755        -1.903208
 H         0.253227         1.617549        -1.270588
 H         1.981624         3.248665        -0.556786
 H         2.994290         1.937836        -0.298647
 H         2.243723        -0.253779        -0.025135
