19
Iteration:  4517charge 0 multiplicity 1
 O         4.330930         2.824831        -2.528603
 C         3.041028         2.388310        -2.502325
 C         2.102519         2.526049        -3.616907
 C         2.591150         1.031081        -3.050703
 C         1.851493         0.271654        -2.015303
 C         1.362505         1.259300        -0.893170
 C         2.438883         2.477716        -1.015805
 C         1.372672         0.515620         0.404089
 O         0.377944         0.143665         0.954298
 H         4.401811         3.764568        -2.702043
 H         1.117282         2.952090        -3.422195
 H         2.586580         2.728086        -4.666591
 H         3.391292         0.560717        -3.721672
 H         0.976348        -0.322039        -2.373764
 H         2.578051        -0.548632        -1.740735
 H         0.419207         1.712395        -1.257275
 H         1.971218         3.400636        -0.757055
 H         3.301197         2.361050        -0.345403
 H         2.304763         0.254292         0.791642
