19
Iteration:  3982
 O         4.304911         2.908570        -2.639335
 C         3.013564         2.496915        -2.432981
 C         2.046446         2.440423        -3.697173
 C         2.628943         1.168374        -3.060558
 C         1.898518         0.279823        -2.074775
 C         1.533818         1.222989        -0.856809
 C         2.619388         2.267120        -0.890728
 C         1.316217         0.468277         0.463097
 O         0.183833         0.205090         0.910331
 H         4.185677         3.826385        -3.051606
 H         0.852458         2.474712        -3.611400
 H         2.340258         2.895657        -4.648908
 H         3.588120         0.694953        -3.489261
 H         0.974299        -0.368044        -2.276192
 H         2.660157        -0.539334        -1.696684
 H         0.547815         1.614164        -1.002687
 H         2.103581         3.118212        -0.301887
 H         3.587635         1.913502        -0.477677
 H         2.167137         0.427907         1.146184
