19
Iteration:  3809
 O         4.363674         2.918068        -2.455981
 C         2.955415         2.409155        -2.334259
 C         2.086840         2.421505        -3.519294
 C         2.655467         1.075679        -3.051723
 C         1.816919         0.242810        -2.210566
 C         1.293835         1.108024        -1.031778
 C         2.337941         2.290749        -1.012754
 C         1.428538         0.431342         0.262487
 O         0.499646         0.479455         1.035565
 H         4.271117         3.840851        -2.729124
 H         1.027658         2.704123        -3.475647
 H         2.550511         2.662713        -4.527046
 H         3.663329         0.914209        -3.502184
 H         1.127941        -0.297783        -2.819614
 H         2.445895        -0.487064        -1.668008
 H         0.197354         1.495584        -1.064883
 H         1.991879         3.306740        -0.608732
 H         3.123190         1.873199        -0.308612
 H         2.405299        -0.115041         0.541729
