19
Iteration:  1663charge 0 multiplicity 1
 O         4.448461         2.827370        -2.570785
 C         3.094031         2.352636        -2.423328
 C         1.974770         2.644295        -3.386287
 C         2.389386         1.194538        -3.096598
 C         1.651624         0.354374        -2.097166
 C         1.413314         1.262100        -0.945988
 C         2.573547         2.350861        -0.967489
 C         1.419973         0.513969         0.274571
 O         0.455739        -0.005111         0.848056
 H         4.992512         2.759321        -1.732686
 H         1.049170         2.819641        -2.943720
 H         2.118503         3.092847        -4.397362
 H         2.949403         0.582366        -3.880194
 H         0.759675        -0.043078        -2.537645
 H         2.467416        -0.334083        -1.750413
 H         0.434972         1.809915        -0.930371
 H         2.055644         3.296948        -0.708301
 H         3.462080         2.380245        -0.218638
 H         2.560722         0.400848         0.690167
