19
Iteration:  1209charge 0 multiplicity 1
 O         4.357158         2.830215        -2.596058
 C         3.004980         2.439813        -2.324704
 C         1.994051         2.620385        -3.516797
 C         2.604676         1.195976        -3.105888
 C         1.804486         0.359004        -2.259295
 C         1.437164         1.143368        -0.935398
 C         2.470048         2.294880        -0.898622
 C         1.408228         0.340260         0.334662
 O         0.419124         0.251331         0.972085
 H         4.402101         3.610051        -2.050108
 H         0.938871         2.751674        -3.248158
 H         2.333027         3.108345        -4.466536
 H         3.188596         0.681713        -3.800468
 H         0.920559        -0.020196        -2.687927
 H         2.313259        -0.613828        -1.891743
 H         0.401302         1.530082        -0.891167
 H         2.251119         3.296197        -0.492582
 H         3.347398         1.746359        -0.409186
 H         2.317887        -0.115569         0.720845
