19
Iteration:   579
 O         4.427355         2.904342        -2.601741
 C         3.098889         2.340313        -2.383914
 C         2.110837         2.621148        -3.537063
 C         2.555275         1.153569        -3.132036
 C         1.664703         0.309332        -2.203537
 C         1.346177         1.255684        -0.984295
 C         2.472762         2.350658        -0.952560
 C         1.370217         0.461787         0.423887
 O         0.462791         0.020506         1.079218
 H         4.250730         3.891583        -2.495532
 H         1.020714         3.015179        -3.375577
 H         2.507727         2.983839        -4.523344
 H         3.184039         0.628683        -3.821236
 H         0.726898        -0.084043        -2.547376
 H         2.121065        -0.498939        -1.726808
 H         0.374430         1.683422        -1.310434
 H         1.996571         3.301747        -0.683258
 H         3.244102         2.060539        -0.313581
 H         2.428904         0.302794         0.726161
