19
Iteration:  2683
 O         4.318044         2.892398        -2.624961
 C         3.136883         2.299300        -2.409434
 C         2.018736         2.387141        -3.391421
 C         2.589349         1.005279        -3.072316
 C         1.774018         0.342041        -1.968369
 C         1.348283         1.445711        -1.008716
 C         2.554196         2.459975        -0.906022
 C         1.354378         0.519674         0.279730
 O         0.392681         0.106495         0.821859
 H         4.349214         3.808227        -2.368309
 H         1.042891         2.828740        -2.992009
 H         2.343617         2.570022        -4.376858
 H         3.209718         0.500805        -3.760194
 H         0.953463        -0.319263        -2.432789
 H         2.424752        -0.437974        -1.639312
 H         0.397342         1.946920        -1.176071
 H         2.321951         3.447968        -0.600910
 H         3.433384         2.088303        -0.287079
 H         2.356222         0.073352         0.525210
