19
Iteration:  1598charge 0 multiplicity 1
 O         4.431903         2.830285        -2.653920
 C         3.103298         2.451082        -2.420687
 C         2.111643         2.677986        -3.505682
 C         2.520526         1.247922        -3.075313
 C         1.611412         0.396072        -2.167470
 C         1.380813         1.266920        -0.782662
 C         2.607298         2.337547        -0.952524
 C         1.351633         0.415517         0.415360
 O         0.383200        -0.091712         0.976629
 H         4.158751         3.515926        -3.313184
 H         1.128407         2.980671        -3.221324
 H         2.513711         3.002235        -4.494974
 H         3.194673         0.652436        -3.758633
 H         0.693061         0.157200        -2.748800
 H         2.080735        -0.678762        -2.029232
 H         0.444300         1.755553        -1.007199
 H         2.194197         3.269539        -0.630441
 H         3.436432         1.903952        -0.317126
 H         2.394625         0.101412         0.563664
