19
Iteration:  2230
 O         4.268573         2.985314        -2.596120
 C         3.028380         2.432989        -2.350968
 C         2.037590         2.513194        -3.611893
 C         2.585058         1.132859        -3.093378
 C         1.907812         0.268887        -2.032575
 C         1.527386         1.205049        -0.923502
 C         2.600552         2.261707        -0.871401
 C         1.352117         0.412972         0.382169
 O         0.241317         0.295790         0.875155
 H         4.261708         3.218897        -3.564264
 H         0.906652         2.502607        -3.533866
 H         2.292680         2.785415        -4.608201
 H         3.359892         0.577847        -3.656325
 H         0.840367        -0.220892        -2.224227
 H         2.581221        -0.609520        -1.697001
 H         0.554920         1.735425        -1.000801
 H         2.442651         3.192843        -0.300255
 H         3.478116         1.847681        -0.398565
 H         2.167744        -0.244696         0.869320
