19
Iteration:  1551
 O         4.297662         2.893803        -2.404757
 C         3.039403         2.318313        -2.410875
 C         1.914538         2.614773        -3.435280
 C         2.521772         1.193900        -3.135481
 C         1.640972         0.351143        -2.165357
 C         1.493829         1.346707        -0.934886
 C         2.677172         2.259845        -0.889469
 C         1.451939         0.396241         0.237041
 O         0.451142         0.139494         0.855374
 H         4.690159         2.836937        -3.269760
 H         0.902509         2.752846        -3.121038
 H         2.182408         3.017248        -4.339094
 H         3.159125         0.667770        -3.804554
 H         0.643003         0.059429        -2.418776
 H         2.080163        -0.628008        -1.768891
 H         0.593650         2.048666        -0.792460
 H         2.304353         3.250293        -0.568458
 H         3.638132         1.809837        -0.445071
 H         2.466206        -0.113805         0.463893
