19
Iteration:    44
 O         4.300452         2.802422        -2.305461
 C         2.982152         2.401949        -2.419772
 C         2.019948         2.548124        -3.536252
 C         2.566623         1.163407        -3.158327
 C         2.019050         0.194017        -2.170660
 C         1.397162         1.118414        -1.090156
 C         2.317592         2.454905        -1.081951
 C         1.356071         0.482304         0.309857
 O         0.510263         0.327373         1.160400
 H         4.738479         2.954118        -3.132097
 H         1.018002         2.771777        -3.274371
 H         2.200404         2.950844        -4.527590
 H         3.104589         0.658607        -3.955655
 H         1.240008        -0.400956        -2.625145
 H         2.823416        -0.437292        -1.850586
 H         0.416096         1.444686        -1.506855
 H         1.672142         3.318906        -0.942212
 H         3.038788         2.352776        -0.295331
 H         2.390573        -0.040285         0.548468
