19
Iteration:  2007
 O         4.289267         2.991271        -2.388053
 C         3.059414         2.394860        -2.447078
 C         2.195365         2.557667        -3.646336
 C         2.487057         1.117921        -3.202021
 C         1.650268         0.341782        -2.204881
 C         1.446896         1.164781        -0.972657
 C         2.407019         2.363125        -1.016043
 C         1.398375         0.342307         0.348051
 O         0.467543         0.221698         1.166680
 H         5.127525         2.460031        -2.347064
 H         1.278889         3.156524        -3.608255
 H         2.799597         2.749444        -4.459097
 H         3.239618         0.645994        -3.911194
 H         0.730545        -0.174693        -2.664190
 H         2.289077        -0.497580        -1.769654
 H         0.499243         1.563557        -1.106953
 H         2.041974         3.316638        -0.635756
 H         3.212574         2.243848        -0.356846
 H         2.448344        -0.249449         0.433954
