19
Iteration:  4550charge 0 multiplicity 1
 O         4.423337         2.833486        -2.660763
 C         3.052340         2.345238        -2.397927
 C         2.009775         2.344660        -3.456183
 C         2.742728         1.082261        -3.038715
 C         1.825652         0.340373        -2.049930
 C         1.297458         1.314914        -0.985706
 C         2.370613         2.433854        -0.874294
 C         1.374535         0.604541         0.319384
 O         0.398311         0.141579         0.893079
 H         4.429641         3.795393        -2.649770
 H         1.004607         2.463042        -3.048997
 H         2.079594         2.778521        -4.532586
 H         3.379502         0.500352        -3.653328
 H         0.970550        -0.105037        -2.599063
 H         2.451290        -0.474987        -1.625144
 H         0.282640         1.702758        -1.079180
 H         2.113078         3.415277        -0.884125
 H         3.089674         2.269902        -0.061996
 H         2.495558         0.460031         0.544958
