19
Iteration:  3178
 O         4.222592         3.078913        -2.262173
 C         3.060198         2.317355        -2.371576
 C         2.023099         2.431109        -3.491075
 C         2.722057         1.118444        -3.185716
 C         1.804842         0.189481        -2.307756
 C         1.363158         0.980713        -1.173964
 C         2.380831         2.084226        -0.964057
 C         1.373287         0.391527         0.283672
 O         0.561902         0.727446         1.124361
 H         4.193568         3.999065        -2.592740
 H         0.959216         2.512532        -3.391322
 H         2.476105         2.791627        -4.423941
 H         3.363167         0.554599        -4.005497
 H         0.898396        -0.085974        -2.886149
 H         2.318304        -0.712953        -1.954965
 H         0.384155         1.342370        -1.274913
 H         2.143110         3.108300        -0.673689
 H         3.297179         1.723128        -0.287979
 H         2.204804        -0.267016         0.567992
