19
Iteration:  1417charge 0 multiplicity 1
 O         4.355095         3.055449        -2.631428
 C         3.099272         2.403115        -2.355532
 C         1.995259         2.582690        -3.379203
 C         2.535786         1.216940        -3.207106
 C         1.721593         0.318915        -2.261325
 C         1.415751         1.157200        -1.035108
 C         2.611551         2.083535        -0.931178
 C         1.332134         0.337645         0.337478
 O         0.388596         0.279883         1.108833
 H         4.727584         3.456554        -1.813231
 H         0.906903         2.773178        -3.181185
 H         2.436128         2.951274        -4.379466
 H         3.166530         0.911664        -4.067010
 H         0.789477        -0.177196        -2.506283
 H         2.352426        -0.618833        -1.947774
 H         0.494495         1.764855        -1.204746
 H         2.460806         3.051092        -0.365114
 H         3.374979         1.420314        -0.352064
 H         2.368506        -0.087406         0.491252
