19
Iteration:  3394charge 0 multiplicity 1
 O         4.332058         2.821060        -2.598329
 C         3.066524         2.358945        -2.411786
 C         1.971949         2.407572        -3.491425
 C         2.695184         1.061371        -3.045646
 C         1.815990         0.324155        -2.020072
 C         1.310770         1.339677        -0.918391
 C         2.502386         2.432198        -0.914473
 C         1.402912         0.535170         0.298151
 O         0.391409         0.133387         0.795414
 H         4.485066         3.790751        -2.688523
 H         0.959825         2.455465        -3.127153
 H         2.118523         3.050267        -4.301695
 H         3.585823         0.646782        -3.660736
 H         0.887838        -0.166782        -2.371501
 H         2.551213        -0.396290        -1.667130
 H         0.368232         1.811948        -1.027325
 H         2.101512         3.407408        -0.538611
 H         3.300814         2.157951        -0.170833
 H         2.392150         0.455509         0.765066
