19
Iteration:  2976charge 0 multiplicity 1
 O         4.314747         2.959622        -2.509707
 C         3.000946         2.353925        -2.324971
 C         1.972990         2.498854        -3.468005
 C         2.614406         1.196132        -3.181649
 C         2.038870         0.210644        -2.130376
 C         1.465396         1.128256        -1.071748
 C         2.517691         2.264272        -0.878291
 C         1.266364         0.346168         0.286224
 O         0.329880         0.490965         1.039685
 H         4.221292         3.188996        -3.473384
 H         0.852221         2.514582        -3.200705
 H         2.094099         2.825651        -4.577596
 H         3.451886         0.740017        -3.838737
 H         1.371596        -0.443527        -2.761916
 H         2.829361        -0.398467        -1.728112
 H         0.432231         1.588146        -1.294571
 H         2.025037         3.251463        -0.475358
 H         3.316598         1.913930        -0.091051
 H         2.086051        -0.351833         0.528714
