19
Iteration:  3918
 O         4.368977         2.969888        -2.555814
 C         3.032052         2.376314        -2.347956
 C         2.021251         2.392537        -3.431455
 C         2.693350         1.115713        -3.087006
 C         1.890232         0.220155        -2.122975
 C         1.357406         1.262878        -0.989191
 C         2.463954         2.303188        -0.972723
 C         1.345379         0.511261         0.330102
 O         0.345686         0.285929         0.946086
 H         4.371308         3.551825        -3.320314
 H         0.927113         2.413459        -3.134573
 H         2.207614         2.764778        -4.436476
 H         3.199754         0.617555        -3.927550
 H         1.047069        -0.241362        -2.632589
 H         2.485107        -0.635078        -1.760435
 H         0.338630         1.573184        -1.151261
 H         2.312296         3.410180        -0.705327
 H         3.140978         1.855223        -0.158100
 H         2.409152         0.420745         0.772558
