19
Iteration:  4269
 O         4.335857         3.042607        -2.515611
 C         3.034210         2.398487        -2.384681
 C         2.056605         2.432409        -3.517291
 C         2.733809         1.115703        -3.189941
 C         1.859348         0.141537        -2.141799
 C         1.384022         1.162726        -1.009400
 C         2.470795         2.195682        -0.998579
 C         1.299771         0.392095         0.346986
 O         0.372402         0.463055         1.126449
 H         4.145502         3.946703        -2.725859
 H         0.904787         2.771603        -3.336031
 H         2.382847         2.964462        -4.397982
 H         3.500873         0.591631        -3.897957
 H         0.876580        -0.199927        -2.605654
 H         2.496793        -0.690223        -1.794254
 H         0.387729         1.459421        -1.493098
 H         1.994557         3.203547        -0.714085
 H         3.316895         2.072002        -0.321505
 H         2.117805        -0.262549         0.590286
