19
Iteration:  3419
 O         4.368804         2.851143        -2.524266
 C         3.131768         2.314612        -2.418991
 C         1.975191         2.435141        -3.421297
 C         2.599148         1.067416        -3.027421
 C         1.820534         0.262115        -2.092928
 C         1.373909         1.269182        -1.029905
 C         2.494985         2.477234        -0.975177
 C         1.304926         0.710546         0.347330
 O         0.428670         0.038736         0.886082
 H         4.341608         3.848239        -2.674900
 H         0.994870         2.831871        -3.108565
 H         2.315177         2.715265        -4.491590
 H         3.068764         0.664165        -3.869569
 H         0.932742        -0.224259        -2.561428
 H         2.519344        -0.538975        -1.811919
 H         0.444921         1.763689        -1.310517
 H         2.103724         3.354539        -0.633994
 H         3.282833         2.222189        -0.288886
 H         2.349846         0.681774         0.715424
