19
Iteration:   359charge 0 multiplicity 1
 O         4.307742         2.821022        -2.633581
 C         3.010765         2.480184        -2.383748
 C         1.874869         2.570668        -3.427053
 C         2.549803         1.238997        -3.119535
 C         1.991208         0.186025        -2.118005
 C         1.558029         1.104499        -0.869340
 C         2.559705         2.291876        -0.928036
 C         1.389130         0.436562         0.385132
 O         0.260163         0.301283         0.820299
 H         4.414505         3.798303        -2.460378
 H         0.955080         2.774298        -3.025651
 H         2.171480         3.047288        -4.309217
 H         3.172566         0.900746        -3.978954
 H         1.145937        -0.404540        -2.589783
 H         2.836423        -0.496646        -1.893995
 H         0.501331         1.449191        -1.095789
 H         2.137434         3.106365        -0.320311
 H         3.498889         2.037303        -0.391267
 H         2.387178         0.126938         0.928411
