19
Iteration:  1323
 O         4.335104         3.014210        -2.530380
 C         3.128052         2.317296        -2.334540
 C         2.017692         2.622209        -3.422870
 C         2.558374         1.272529        -3.236940
 C         1.754841         0.262133        -2.246163
 C         1.301948         1.173685        -1.061309
 C         2.524167         2.239437        -0.893388
 C         1.324155         0.331903         0.295206
 O         0.479171         0.272341         1.135362
 H         4.964212         2.459967        -2.961734
 H         1.056523         2.873283        -3.113323
 H         2.489273         3.070365        -4.322979
 H         3.226101         0.749038        -4.026976
 H         1.003279        -0.316998        -2.809290
 H         2.374238        -0.473576        -1.860771
 H         0.202913         1.373433        -1.071811
 H         2.174395         3.229945        -0.585455
 H         3.252162         1.809149        -0.240570
 H         2.431166         0.025393         0.452868
