19
Iteration:  2116
 O         4.371510         2.894487        -2.567762
 C         2.981058         2.403089        -2.464285
 C         2.002135         2.555336        -3.645263
 C         2.514847         1.140075        -3.167787
 C         1.896294         0.314760        -2.076250
 C         1.531889         1.232521        -0.846892
 C         2.569735         2.376025        -0.947237
 C         1.328200         0.392206         0.378912
 O         0.260734         0.166041         0.982565
 H         4.624074         3.456546        -1.804002
 H         1.095451         2.973856        -3.251029
 H         2.385888         3.007260        -4.534892
 H         3.188295         0.597671        -3.850547
 H         1.006509        -0.400545        -2.299789
 H         2.576037        -0.501022        -1.830129
 H         0.616290         1.618756        -1.191614
 H         2.263612         3.386493        -0.663873
 H         3.471559         2.053871        -0.433529
 H         2.274896        -0.126618         0.774733
