19
Iteration:   759
 O         4.296533         3.039302        -2.671696
 C         3.106113         2.328915        -2.326960
 C         2.018188         2.563455        -3.368313
 C         2.640643         1.200104        -3.177365
 C         1.798058         0.299924        -2.281119
 C         1.418327         1.122067        -0.978163
 C         2.613845         2.137931        -0.927783
 C         1.322080         0.351946         0.314165
 O         0.336832         0.347953         1.102867
 H         4.262419         3.899443        -2.280268
 H         0.986442         2.624788        -2.979840
 H         2.320093         3.170107        -4.183902
 H         3.180907         0.832083        -4.029355
 H         0.940804        -0.010321        -2.869418
 H         2.293127        -0.648543        -1.968778
 H         0.486603         1.566351        -1.108552
 H         2.356263         3.049786        -0.430483
 H         3.354651         1.591783        -0.281997
 H         2.194138        -0.313801         0.510880
