19
Iteration:   377
 O         4.397741         2.847783        -2.721906
 C         2.983310         2.431724        -2.374374
 C         1.909733         2.646742        -3.354982
 C         2.607572         1.204991        -3.107390
 C         2.001226         0.237122        -2.154041
 C         1.589827         1.133348        -0.951107
 C         2.537527         2.367071        -0.912021
 C         1.336572         0.370433         0.510348
 O         0.189799         0.183726         0.890965
 H         4.257666         3.503340        -3.463555
 H         0.824298         2.953410        -3.195848
 H         2.114711         3.079547        -4.353980
 H         3.367971         0.887583        -3.815951
 H         1.068540        -0.236107        -2.488539
 H         2.664955        -0.558577        -1.907745
 H         0.588634         1.487391        -1.167748
 H         2.112744         3.378633        -0.707242
 H         3.359639         2.281258        -0.234473
 H         2.165632         0.019479         1.084045
