19
Iteration:  2391charge 0 multiplicity 1
 O         4.248538         2.936729        -2.367439
 C         2.985744         2.400170        -2.391619
 C         2.106363         2.414776        -3.537250
 C         2.712541         1.105687        -3.082564
 C         1.728045         0.252950        -2.174563
 C         1.287415         1.172683        -1.049207
 C         2.410429         2.246180        -0.947470
 C         1.447466         0.486916         0.203619
 O         0.548076         0.406218         1.048469
 H         4.801908         3.192043        -3.110576
 H         1.003408         2.551111        -3.447690
 H         2.548339         2.846797        -4.511680
 H         3.458689         0.573416        -3.684416
 H         0.716369         0.057964        -2.589862
 H         2.116543        -0.731871        -1.724508
 H         0.297369         1.654353        -1.065668
 H         1.998918         3.280314        -0.699001
 H         3.246612         2.143469        -0.233660
 H         2.446941         0.003453         0.261830
