19
Iteration:   762
 O         4.282378         3.016261        -2.664668
 C         3.110403         2.323763        -2.329731
 C         1.978870         2.562932        -3.405142
 C         2.654138         1.194554        -3.172720
 C         1.830501         0.325658        -2.281038
 C         1.406867         1.130526        -0.970566
 C         2.630959         2.121882        -0.896756
 C         1.314414         0.363919         0.313401
 O         0.342311         0.342071         1.104173
 H         4.270994         3.923161        -2.261545
 H         1.029329         2.704311        -3.124245
 H         2.266508         3.205895        -4.206532
 H         3.290536         0.916365        -4.023409
 H         0.936841         0.063793        -2.950259
 H         2.200117        -0.671301        -1.917457
 H         0.394688         1.523300        -1.098931
 H         2.339558         3.063704        -0.377918
 H         3.423494         1.515374        -0.319086
 H         2.255082        -0.248937         0.489778
