19
Iteration:  2275charge 0 multiplicity 1
 O         4.459640         2.958052        -2.606654
 C         3.039167         2.355203        -2.420880
 C         1.945611         2.431633        -3.396405
 C         2.681520         1.084840        -3.070261
 C         1.807196         0.234094        -2.155723
 C         1.413725         1.180555        -1.015076
 C         2.413546         2.332197        -0.977759
 C         1.351080         0.549267         0.310889
 O         0.356372         0.262081         0.998493
 H         4.629884         3.855333        -2.210057
 H         1.007985         2.759761        -3.003795
 H         2.166102         2.782863        -4.438728
 H         3.216073         0.701833        -3.926525
 H         0.983581        -0.431291        -2.676250
 H         2.584988        -0.478561        -1.571853
 H         0.444933         1.702887        -1.314279
 H         2.035176         3.245778        -0.491549
 H         3.217088         2.040175        -0.321838
 H         2.353073         0.288016         0.715331
