19
Iteration:  3726charge 0 multiplicity 1
 O         4.248500         2.966344        -2.422907
 C         2.997815         2.387141        -2.281814
 C         2.032957         2.344346        -3.415875
 C         2.672601         1.110319        -3.050515
 C         1.850438         0.141018        -2.255620
 C         1.401684         1.188510        -1.128056
 C         2.401670         2.292377        -0.897656
 C         1.372239         0.455704         0.186575
 O         0.521279         0.552114         1.002212
 H         4.259270         3.334127        -3.339138
 H         0.974708         2.436339        -3.200506
 H         2.377655         2.890990        -4.326429
 H         3.400866         0.706814        -3.837921
 H         1.019931        -0.336168        -2.877375
 H         2.417651        -0.604917        -1.661812
 H         0.420645         1.521762        -1.296072
 H         2.136278         3.243011        -0.454009
 H         3.190016         1.813920        -0.085130
 H         2.251526        -0.314866         0.266198
