19
Iteration:  4845charge 0 multiplicity 1
 O         4.367640         2.922028        -2.390705
 C         3.061072         2.353361        -2.381665
 C         2.023244         2.347892        -3.498680
 C         2.661937         1.133306        -3.103047
 C         1.870124         0.152750        -2.288237
 C         1.318615         1.120271        -1.127107
 C         2.282675         2.385137        -0.990365
 C         1.383116         0.448590         0.296359
 O         0.517984         0.527274         1.119578
 H         4.067140         3.851616        -2.371655
 H         0.946260         2.596883        -3.240440
 H         2.533797         2.696698        -4.490581
 H         3.534915         0.651148        -3.738007
 H         1.143142        -0.541568        -2.556010
 H         2.579766        -0.585158        -1.890999
 H         0.325414         1.409455        -1.469700
 H         1.654229         3.232919        -0.863744
 H         3.034753         2.384041        -0.113833
 H         2.322931        -0.168125         0.525035
