19
Iteration:   433
 O         4.257496         3.042523        -2.449298
 C         2.981702         2.385509        -2.389016
 C         1.934283         2.381018        -3.522959
 C         2.527357         1.072708        -3.048473
 C         1.735468         0.342155        -2.069543
 C         1.462047         1.409759        -0.876954
 C         2.733579         2.225328        -0.911773
 C         1.429067         0.527516         0.255231
 O         0.387934         0.081476         0.773394
 H         4.637324         2.773492        -3.281336
 H         1.001149         2.643845        -3.197733
 H         2.292408         2.770792        -4.410268
 H         3.272447         0.590021        -3.750520
 H         0.757981        -0.021439        -2.481103
 H         2.294372        -0.456904        -1.773618
 H         0.536187         2.014821        -0.942370
 H         2.723040         3.264497        -0.500158
 H         3.591704         1.739327        -0.565256
 H         2.432815         0.574682         0.810951
