19
Iteration:  1038charge 0 multiplicity 1
 O         4.359944         2.889857        -2.623164
 C         2.985689         2.493595        -2.333236
 C         1.917988         2.598937        -3.391196
 C         2.687820         1.237703        -3.010726
 C         1.746706         0.262192        -2.267219
 C         1.423799         1.243210        -0.952578
 C         2.678824         2.194176        -0.850693
 C         1.341066         0.462602         0.333510
 O         0.375661         0.126015         0.914266
 H         4.422880         3.067858        -3.605086
 H         0.840536         2.792969        -3.309950
 H         2.445153         2.985494        -4.372211
 H         3.097978         0.823290        -3.868789
 H         0.876959        -0.203911        -2.996600
 H         2.193950        -0.593387        -1.762612
 H         0.414608         1.798602        -0.915153
 H         2.278694         3.115704        -0.318052
 H         3.514632         1.637600        -0.405199
 H         2.280166         0.416624         0.897460
