19
Iteration:   841charge 0 multiplicity 1
 O         4.433631         2.838236        -2.627917
 C         3.074950         2.379164        -2.358231
 C         2.030470         2.658316        -3.323300
 C         2.611264         1.134372        -3.126544
 C         1.744136         0.282909        -2.273606
 C         1.403518         1.211985        -0.973372
 C         2.446180         2.409787        -1.011694
 C         1.343935         0.330408         0.322691
 O         0.403157         0.147586         1.103014
 H         4.536861         3.731102        -3.022214
 H         0.960502         2.819480        -2.909731
 H         2.324647         3.188126        -4.223608
 H         3.290709         0.960522        -3.976091
 H         0.799971        -0.075081        -2.834963
 H         2.363006        -0.593904        -1.915784
 H         0.306296         1.599662        -1.226695
 H         2.093362         3.506042        -0.744647
 H         3.213248         2.132828        -0.176248
 H         2.389421         0.067556         0.693362
