19
Iteration:  2221
 O         4.279198         3.010995        -2.594746
 C         2.945994         2.465365        -2.411617
 C         1.994571         2.406934        -3.640273
 C         2.564621         1.207278        -3.044951
 C         1.885008         0.231704        -2.048158
 C         1.528954         1.188302        -0.811820
 C         2.699926         2.245122        -0.865775
 C         1.324155         0.397695         0.372178
 O         0.223737         0.304617         0.860769
 H         4.744186         3.142143        -3.451022
 H         0.943455         2.716489        -3.542375
 H         2.517180         2.818093        -4.505951
 H         3.380672         0.718812        -3.583805
 H         1.008565        -0.162478        -2.551535
 H         2.602309        -0.590641        -1.727073
 H         0.563994         1.684981        -1.118634
 H         2.455044         3.108974        -0.298402
 H         3.549957         1.798839        -0.450553
 H         2.370928         0.018551         0.712388
