19
Iteration:   793
 O         4.263541         2.884377        -2.484056
 C         2.958221         2.544342        -2.319169
 C         2.030346         2.509139        -3.536273
 C         2.513659         1.192001        -3.114130
 C         1.742470         0.302559        -2.227124
 C         1.462519         1.193445        -0.974288
 C         2.673525         2.137291        -0.954392
 C         1.393696         0.407441         0.283546
 O         0.411949         0.298946         1.006048
 H         4.373891         3.835255        -2.445438
 H         0.989665         2.681590        -3.468449
 H         2.425017         3.053117        -4.368629
 H         3.390841         0.854781        -3.660176
 H         0.837813        -0.160967        -2.686856
 H         2.400656        -0.485254        -1.820788
 H         0.553047         1.623804        -1.026839
 H         2.524608         2.887961        -0.198011
 H         3.684905         1.648309        -0.722793
 H         2.228172        -0.298696         0.482058
