19
Iteration:  4235charge 0 multiplicity 1
 O         4.349790         2.931935        -2.399068
 C         3.001048         2.403918        -2.293344
 C         1.963266         2.309877        -3.570696
 C         2.620176         1.097125        -3.125354
 C         1.867505         0.193161        -2.186902
 C         1.343246         1.223918        -1.074805
 C         2.442168         2.322645        -0.856465
 C         1.470516         0.491603         0.256077
 O         0.447403         0.433322         0.969261
 H         4.209319         3.614537        -3.054915
 H         0.837425         2.685435        -3.306724
 H         2.497765         2.698742        -4.458969
 H         3.449297         0.703550        -3.905451
 H         0.922535        -0.342174        -2.561332
 H         2.477232        -0.667187        -2.006133
 H         0.259786         1.553922        -1.188260
 H         2.010293         3.317606        -0.533933
 H         3.153144         1.948311        -0.073990
 H         2.452556         0.146443         0.523804
