19
Iteration:  3010charge 0 multiplicity 1
 O         4.237671         3.120451        -2.300726
 C         3.091854         2.296689        -2.372370
 C         1.965740         2.457019        -3.456537
 C         2.657221         1.080028        -3.133685
 C         1.854040         0.117789        -2.193004
 C         1.416291         1.086834        -1.145518
 C         2.518536         2.155470        -0.984875
 C         1.355793         0.446411         0.281198
 O         0.447135         0.588962         1.018641
 H         4.230770         3.746796        -3.026102
 H         0.939223         2.678050        -2.951232
 H         2.107073         2.648582        -4.558354
 H         3.205474         0.673627        -3.974019
 H         1.141757        -0.263571        -2.975661
 H         2.341481        -0.746532        -1.758670
 H         0.448512         1.583781        -1.386852
 H         2.152140         3.146804        -0.582875
 H         3.469846         1.751748        -0.380661
 H         2.211157        -0.232680         0.510392
