19
Iteration:  4369
 O         4.251600         2.952383        -2.542122
 C         3.041866         2.400063        -2.382461
 C         2.073357         2.523121        -3.431228
 C         2.675856         1.144327        -3.130702
 C         1.939769         0.089683        -2.191798
 C         1.436828         1.054034        -1.077145
 C         2.501004         2.214572        -1.020078
 C         1.313671         0.469701         0.327374
 O         0.322444         0.491353         1.097798
 H         4.012527         3.910105        -2.576258
 H         1.148314         2.886138        -3.117889
 H         2.378339         2.942468        -4.473814
 H         3.317036         0.823087        -3.823170
 H         1.097428        -0.432213        -2.670392
 H         2.675069        -0.600407        -1.775567
 H         0.375020         1.443424        -1.187930
 H         2.034238         3.148322        -0.550989
 H         3.326487         1.946919        -0.349544
 H         2.176922         0.094226         0.840048
