19
Iteration:  2040
 O         4.309484         2.974460        -2.407737
 C         3.046126         2.409892        -2.369503
 C         2.100241         2.503844        -3.575641
 C         2.628655         1.074489        -3.121783
 C         1.641300         0.319412        -2.178310
 C         1.359113         1.246779        -0.984343
 C         2.450679         2.344239        -0.976653
 C         1.430505         0.412788         0.265279
 O         0.496616         0.217803         1.036267
 H         4.961064         2.822443        -3.090985
 H         1.108310         2.878882        -3.334085
 H         2.447196         2.887612        -4.471142
 H         3.347519         0.446481        -3.718686
 H         0.666199         0.035335        -2.690233
 H         2.092140        -0.593922        -1.706525
 H         0.434667         1.714078        -1.033134
 H         2.042502         3.228189        -0.485817
 H         3.243120         1.960387        -0.437146
 H         2.396620        -0.182087         0.541879
