19
Iteration:  1985
 O         4.356307         2.856205        -2.511402
 C         3.008568         2.410221        -2.338440
 C         2.072456         2.579465        -3.586338
 C         2.647510         1.185208        -3.132315
 C         1.766421         0.302487        -2.300996
 C         1.262100         1.190115        -0.948250
 C         2.390207         2.319891        -1.004808
 C         1.407332         0.407569         0.298418
 O         0.515794         0.247991         1.158646
 H         4.961533         2.544642        -1.833652
 H         1.000147         2.718762        -3.414291
 H         2.485829         3.215412        -4.316549
 H         3.449473         0.622760        -3.727940
 H         0.857039         0.076505        -2.976933
 H         2.220303        -0.675680        -1.948679
 H         0.319053         1.592382        -1.099309
 H         2.032544         3.309930        -0.714332
 H         3.116273         2.202740        -0.238474
 H         2.465216        -0.007274         0.402527
