19
Iteration:  1441charge 0 multiplicity 1
 O         4.237051         2.897802        -2.594556
 C         3.011918         2.354770        -2.375139
 C         1.915422         2.630564        -3.350616
 C         2.597758         1.135339        -3.146782
 C         1.804433         0.347980        -2.267461
 C         1.418746         1.260403        -0.973365
 C         2.710580         2.181795        -0.890400
 C         1.315365         0.377931         0.240198
 O         0.437433         0.280079         1.010608
 H         4.514676         3.449776        -1.807294
 H         0.916910         2.707439        -3.014031
 H         2.234409         3.238090        -4.202377
 H         3.348353         0.824636        -3.887672
 H         1.031747        -0.308568        -2.678090
 H         2.557724        -0.537252        -1.854432
 H         0.564815         1.990296        -1.202136
 H         2.562670         3.156571        -0.305511
 H         3.440473         1.454250        -0.326666
 H         2.255372        -0.279504         0.111317
