19
Iteration:   807
 O         4.349273         2.941506        -2.478987
 C         2.971466         2.381722        -2.424532
 C         2.023176         2.629648        -3.505914
 C         2.528001         1.169957        -3.127448
 C         1.742370         0.273574        -2.129393
 C         1.455974         1.184901        -0.929154
 C         2.584335         2.227505        -0.935220
 C         1.396116         0.297287         0.290621
 O         0.426220         0.307390         0.964734
 H         4.314273         3.936979        -2.590578
 H         1.053311         3.047125        -3.359420
 H         2.495377         2.839298        -4.487108
 H         3.126695         0.645478        -3.935185
 H         0.752163        -0.152962        -2.559145
 H         2.332904        -0.661215        -1.905967
 H         0.461663         1.752840        -1.057989
 H         2.337744         3.230542        -0.434488
 H         3.411294         1.607404        -0.424535
 H         2.405676        -0.197176         0.451124
