19
Iteration:  2742
 O         4.382558         2.881205        -2.579495
 C         3.074497         2.333970        -2.384143
 C         2.143987         2.523838        -3.653951
 C         2.572772         1.145468        -3.147162
 C         1.635866         0.293229        -2.129343
 C         1.507888         1.272888        -0.861996
 C         2.485188         2.416807        -0.995287
 C         1.311104         0.607413         0.614562
 O         0.362511        -0.044491         0.907500
 H         4.486738         3.715168        -3.070319
 H         1.092865         2.732579        -3.880797
 H         2.781610         2.745318        -4.585628
 H         3.395038         0.534041        -3.678470
 H         0.679323         0.008554        -2.453129
 H         2.145642        -0.632910        -1.802130
 H         0.577886         1.877137        -0.908910
 H         1.989878         3.441581        -0.777071
 H         3.439799         2.394436        -0.330293
 H         2.229373         0.662905         1.259801
