19
Iteration:  1855charge 0 multiplicity 1
 O         4.270838         2.997443        -2.533570
 C         3.110475         2.375310        -2.316109
 C         1.949480         2.509675        -3.279642
 C         2.559968         1.141322        -3.126394
 C         1.762327         0.272996        -2.281840
 C         1.424632         1.164232        -1.029012
 C         2.628562         2.248957        -0.951678
 C         1.339367         0.377145         0.164282
 O         0.455162         0.388527         1.000646
 H         4.997920         2.753838        -1.915584
 H         1.005693         2.700554        -2.842538
 H         2.057911         2.952981        -4.265564
 H         3.157074         0.695073        -3.979232
 H         0.791956        -0.142381        -2.652743
 H         2.363544        -0.554815        -1.909549
 H         0.500694         1.682530        -1.194115
 H         2.147912         3.160444        -0.510913
 H         3.445957         1.808493        -0.254744
 H         2.133743        -0.291029         0.225304
