19
Iteration:  4810charge 0 multiplicity 1
 O         4.318472         2.909450        -2.459818
 C         2.893259         2.419797        -2.360335
 C         2.127902         2.504501        -3.728625
 C         2.711293         1.125081        -3.131550
 C         1.928272         0.180941        -2.177160
 C         1.314772         1.052865        -1.060893
 C         2.361837         2.258886        -0.990175
 C         1.327400         0.357236         0.363586
 O         0.449441         0.558358         1.182488
 H         4.083227         3.862207        -2.409320
 H         1.067404         2.853782        -3.746015
 H         2.624155         2.833847        -4.658394
 H         3.633075         0.755967        -3.588216
 H         1.186937        -0.454452        -2.621841
 H         2.875182        -0.250805        -1.730286
 H         0.292663         1.407748        -1.063632
 H         1.956410         3.152555        -0.490805
 H         3.281112         1.925776        -0.452530
 H         2.248604        -0.352003         0.559119
