19
Iteration:  4193charge 0 multiplicity 1
 O         4.392666         2.932793        -2.540168
 C         3.083852         2.377180        -2.453926
 C         2.160363         2.491351        -3.646688
 C         2.654516         1.152670        -3.196356
 C         1.850282         0.227909        -2.160332
 C         1.340309         1.194558        -0.932857
 C         2.361614         2.417766        -0.990584
 C         1.309944         0.445982         0.433658
 O         0.372559         0.215490         1.203110
 H         4.359366         3.908851        -2.700585
 H         1.060190         2.754814        -3.688498
 H         2.660448         2.770239        -4.542753
 H         3.250858         0.534219        -3.973781
 H         1.060495        -0.351848        -2.700979
 H         2.331536        -0.606219        -1.610355
 H         0.265105         1.435265        -1.215423
 H         1.821953         3.397698        -0.894497
 H         3.096540         2.308651        -0.233909
 H         2.239261        -0.208175         0.661741
