19
Iteration:   193charge 0 multiplicity 1
 O         4.303558         2.800340        -2.198410
 C         2.889351         2.457323        -2.343398
 C         2.166721         2.506600        -3.605220
 C         2.567019         1.206413        -3.216271
 C         1.782447         0.182310        -2.342998
 C         1.384740         0.988050        -1.121091
 C         2.183782         2.381402        -1.065892
 C         1.519144         0.362592         0.330402
 O         0.651833         0.516846         1.159510
 H         4.469010         3.495039        -2.855525
 H         1.139828         2.784706        -3.345775
 H         2.645041         3.130448        -4.397738
 H         3.488181         0.810025        -3.530754
 H         0.801960        -0.067505        -2.900460
 H         2.307777        -0.812002        -2.194782
 H         0.271290         1.134891        -1.192615
 H         1.657934         3.193184        -0.482034
 H         3.076750         2.272373        -0.370947
 H         2.459068        -0.024677         0.612398
