19
Iteration:  4847charge 0 multiplicity 1
 O         4.360917         2.927220        -2.383379
 C         3.078400         2.335785        -2.396005
 C         2.019305         2.335840        -3.497070
 C         2.663654         1.137864        -3.093654
 C         1.860435         0.134166        -2.280288
 C         1.307215         1.112294        -1.109588
 C         2.292049         2.397847        -0.990546
 C         1.389808         0.443418         0.289123
 O         0.520401         0.532054         1.103025
 H         4.165709         3.932432        -2.377033
 H         0.959865         2.558290        -3.248834
 H         2.467744         2.764667        -4.473744
 H         3.512950         0.707084        -3.739508
 H         1.030255        -0.515537        -2.665378
 H         2.574753        -0.506030        -1.838878
 H         0.303602         1.397960        -1.505576
 H         1.688629         3.305343        -0.850669
 H         2.972209         2.405198        -0.059838
 H         2.414837        -0.154385         0.520665
