19
Iteration:  4777charge 0 multiplicity 1
 O         4.297984         3.034693        -2.469909
 C         2.955562         2.285384        -2.376054
 C         2.045018         2.442105        -3.552793
 C         2.737298         1.061553        -3.103956
 C         1.892539         0.166823        -2.211095
 C         1.418127         1.086968        -1.052248
 C         2.455101         2.304653        -0.996477
 C         1.298761         0.384891         0.278846
 O         0.422955         0.566112         1.122938
 H         4.166939         4.017296        -2.465161
 H         0.973015         2.624278        -3.265185
 H         2.318457         2.840182        -4.519291
 H         3.545867         0.765445        -3.741959
 H         1.136071        -0.386335        -2.785304
 H         2.311208        -0.738132        -1.630395
 H         0.441265         1.543633        -1.229282
 H         2.046146         3.258872        -0.606415
 H         3.255985         2.072955        -0.258793
 H         2.158961        -0.385524         0.554809
