19
Iteration:  4428charge 0 multiplicity 1
 O         4.305679         2.941989        -2.559299
 C         3.076155         2.358917        -2.354805
 C         2.039656         2.398012        -3.499264
 C         2.669697         1.099402        -3.039325
 C         1.823192         0.211205        -2.097199
 C         1.420798         1.262885        -1.029604
 C         2.485874         2.383101        -0.955817
 C         1.346203         0.440160         0.242887
 O         0.395164         0.351602         1.021326
 H         4.166255         3.870537        -2.389887
 H         0.886920         2.514765        -3.448401
 H         2.440438         2.729459        -4.446651
 H         3.425831         0.573616        -3.863485
 H         0.837125        -0.150148        -2.477884
 H         2.412997        -0.717963        -1.666304
 H         0.352269         1.496852        -1.387896
 H         1.946797         3.221250        -0.579440
 H         3.248346         2.148842        -0.197466
 H         2.250870        -0.218309         0.198024
