19
Iteration:  3904charge 0 multiplicity 1
 O         4.261905         2.899254        -2.506243
 C         3.021642         2.364451        -2.414872
 C         2.043344         2.476541        -3.572253
 C         2.701766         1.076053        -3.121059
 C         1.870029         0.259454        -2.136803
 C         1.471173         1.187169        -1.003128
 C         2.493280         2.308382        -0.926510
 C         1.319091         0.570197         0.370541
 O         0.334424         0.265234         1.016850
 H         4.182262         3.627632        -3.189039
 H         1.006020         2.685687        -3.331690
 H         2.416389         3.031036        -4.485887
 H         3.706804         0.734276        -3.554519
 H         0.896004        -0.165476        -2.536828
 H         2.483156        -0.574543        -1.699187
 H         0.555353         1.650667        -1.280773
 H         1.918580         3.088654        -0.465033
 H         3.418412         2.181800        -0.420452
 H         2.343766         0.203098         0.778417
