19
Iteration:  1608charge 0 multiplicity 1
 O         4.419191         2.783994        -2.650154
 C         3.047421         2.426781        -2.377271
 C         2.068724         2.635170        -3.486640
 C         2.504530         1.205425        -3.125222
 C         1.670277         0.426960        -2.202524
 C         1.386242         1.325735        -0.887337
 C         2.556544         2.381808        -0.909817
 C         1.376855         0.403150         0.422266
 O         0.406111        -0.091651         0.961667
 H         4.557100         3.696687        -3.033530
 H         1.141824         3.096383        -3.336868
 H         2.552633         3.002519        -4.364853
 H         3.143173         0.624357        -3.824808
 H         0.696444         0.183124        -2.595486
 H         2.190280        -0.553168        -1.882359
 H         0.418660         1.844974        -0.840118
 H         2.422203         3.283707        -0.332248
 H         3.521335         1.966602        -0.461071
 H         2.339326         0.106014         0.816125
