19
Iteration:  1744charge 0 multiplicity 1
 O         4.279049         3.010176        -2.461859
 C         3.133076         2.316262        -2.398451
 C         1.944221         2.538297        -3.366488
 C         2.528416         1.136064        -3.120060
 C         1.650769         0.346548        -2.112394
 C         1.501345         1.369135        -0.972199
 C         2.680485         2.210330        -1.012125
 C         1.385886         0.375173         0.270746
 O         0.386115         0.162773         0.888078
 H         4.997597         2.862080        -3.080164
 H         0.959942         2.910794        -2.902729
 H         2.280264         3.173052        -4.189003
 H         3.200208         0.650292        -3.765652
 H         0.679594        -0.039222        -2.544615
 H         2.090885        -0.611855        -1.801527
 H         0.591904         1.904089        -0.934183
 H         2.328466         3.202649        -0.669191
 H         3.569051         1.852889        -0.436048
 H         2.281654        -0.166837         0.368098
