19
Iteration:  1669
 O         4.461168         2.862237        -2.602149
 C         3.062270         2.334177        -2.383689
 C         1.987040         2.634293        -3.436427
 C         2.399289         1.173146        -3.117357
 C         1.666935         0.389245        -2.135652
 C         1.450755         1.305638        -0.912758
 C         2.557044         2.331008        -0.937557
 C         1.392303         0.495664         0.355535
 O         0.451012        -0.014733         0.865303
 H         5.095036         2.609175        -1.891447
 H         1.032727         2.973011        -2.887545
 H         2.222669         3.117411        -4.350098
 H         2.977683         0.762136        -3.897974
 H         0.798705        -0.136831        -2.613323
 H         2.386591        -0.383001        -1.848048
 H         0.400978         1.637120        -1.072616
 H         2.104083         3.344428        -0.921323
 H         3.311774         2.244867        -0.209651
 H         2.405180         0.310376         0.620610
