19
Iteration:   889charge 0 multiplicity 1
 O         4.288167         2.804620        -2.455065
 C         2.972356         2.350830        -2.440267
 C         2.049542         2.674225        -3.584684
 C         2.516208         1.130396        -3.167922
 C         1.703748         0.344528        -2.091654
 C         1.404175         1.304978        -0.903227
 C         2.609594         2.356640        -0.958481
 C         1.452549         0.444193         0.340918
 O         0.459915         0.087854         0.928627
 H         4.402897         3.578324        -1.851741
 H         1.026040         2.935449        -3.497457
 H         2.567782         2.977429        -4.536376
 H         3.095463         0.575183        -3.904081
 H         0.852731        -0.078643        -2.506093
 H         2.385721        -0.457382        -1.765276
 H         0.495661         1.860920        -1.025369
 H         2.375116         3.280431        -0.489204
 H         3.439616         1.939700        -0.398017
 H         2.404933        -0.162820         0.391316
