19
Iteration:  2942charge 0 multiplicity 1
 O         4.351403         3.011082        -2.530717
 C         3.036907         2.455591        -2.417843
 C         2.040536         2.632796        -3.568531
 C         2.562776         1.103294        -3.147417
 C         1.954475         0.158223        -2.110454
 C         1.526517         1.094050        -0.949427
 C         2.549527         2.309197        -1.000595
 C         1.318665         0.320196         0.463220
 O         0.199077         0.370874         1.011080
 H         4.243086         3.186572        -3.520156
 H         1.012930         2.682744        -3.253111
 H         2.251176         2.804274        -4.670742
 H         3.472330         0.757993        -3.745018
 H         1.044772        -0.331224        -2.513761
 H         2.648096        -0.592679        -1.775249
 H         0.468073         1.516334        -1.167691
 H         2.110062         3.277130        -0.479825
 H         3.447406         2.002006        -0.375054
 H         2.133467        -0.279654         0.925369
