19
Iteration:  4565charge 0 multiplicity 1
 O         4.301599         2.832926        -2.633655
 C         3.050765         2.406063        -2.363747
 C         2.053101         2.377719        -3.479843
 C         2.727884         1.050379        -2.965079
 C         1.794047         0.289629        -2.077732
 C         1.365800         1.337293        -0.961580
 C         2.490018         2.464380        -1.037239
 C         1.397504         0.560256         0.351178
 O         0.365482         0.151989         0.886447
 H         4.388889         3.820524        -2.669399
 H         0.929566         2.402827        -3.352779
 H         2.346714         2.810528        -4.394099
 H         3.465927         0.616779        -3.645172
 H         0.900232        -0.178751        -2.556613
 H         2.248237        -0.623997        -1.547996
 H         0.340731         1.661710        -1.179255
 H         2.040608         3.355774        -0.434113
 H         3.294639         2.135136        -0.342763
 H         2.339149         0.411497         0.811731
