19
Iteration:  4595charge 0 multiplicity 1
 O         4.311649         2.974248        -2.571922
 C         3.080207         2.378671        -2.447016
 C         2.120663         2.395115        -3.702278
 C         2.591533         1.068355        -3.130979
 C         1.791915         0.289304        -1.987217
 C         1.442188         1.264356        -0.881324
 C         2.565300         2.411213        -0.962560
 C         1.349634         0.486069         0.476721
 O         0.268329         0.159107         0.926833
 H         4.272866         3.903905        -2.764814
 H         0.989607         2.565213        -3.798950
 H         2.648620         2.673658        -4.629568
 H         3.094089         0.461715        -3.757940
 H         0.863351        -0.238007        -2.339022
 H         2.560452        -0.437300        -1.613166
 H         0.463243         1.733573        -1.047443
 H         2.167398         3.189211        -0.410248
 H         3.404117         2.100663        -0.346431
 H         2.470943         0.398630         0.975079
