19
Iteration:  2820charge 0 multiplicity 1
 O         4.439236         2.724622        -2.610793
 C         3.020968         2.433431        -2.428376
 C         2.038088         2.453771        -3.603920
 C         2.564555         1.125183        -2.992389
 C         1.779216         0.319571        -1.990635
 C         1.358571         1.364572        -0.833658
 C         2.448587         2.519177        -0.978697
 C         1.386692         0.531938         0.443262
 O         0.409189        -0.011973         0.761504
 H         4.648040         3.688902        -2.475796
 H         1.077122         2.891282        -3.301895
 H         2.499251         2.775343        -4.486792
 H         3.202749         0.555039        -3.599135
 H         0.945045        -0.225409        -2.317985
 H         2.404027        -0.512074        -1.706291
 H         0.390990         1.839442        -1.149151
 H         1.830162         3.513381        -0.988778
 H         3.367555         2.681999        -0.326557
 H         2.416807         0.404792         0.879320
