19
Iteration:  3236charge 0 multiplicity 1
 O         4.286593         2.962676        -2.644651
 C         3.025200         2.410626        -2.365625
 C         2.112802         2.539429        -3.551930
 C         2.687567         1.159796        -3.175540
 C         1.943562         0.220841        -2.182206
 C         1.402062         1.063143        -0.984707
 C         2.430055         2.257420        -0.913106
 C         1.182771         0.220774         0.312586
 O         0.409976         0.533807         1.159220
 H         4.396706         3.897984        -2.438136
 H         1.014894         2.688353        -3.355070
 H         2.483979         2.956813        -4.506280
 H         3.611207         0.911048        -3.583907
 H         1.236259        -0.488222        -2.614712
 H         2.728168        -0.475188        -1.730956
 H         0.329929         1.490666        -1.045887
 H         2.049441         3.331965        -0.499866
 H         3.344945         2.026084        -0.207571
 H         1.764303        -0.734994         0.407092
