19
Iteration:  4001charge 0 multiplicity 1
 O         4.319723         2.945007        -2.705204
 C         2.961763         2.459388        -2.394798
 C         2.025987         2.397012        -3.525020
 C         2.687094         1.116582        -3.050277
 C         1.897533         0.226871        -2.061883
 C         1.487525         1.213588        -0.927129
 C         2.599637         2.302661        -0.925308
 C         1.279861         0.602155         0.473930
 O         0.222363         0.160738         0.908576
 H         4.309450         3.897670        -2.364619
 H         1.004195         2.817077        -3.418599
 H         2.569685         2.668402        -4.431957
 H         3.410007         0.767560        -3.906959
 H         1.060675        -0.160592        -2.716341
 H         2.501996        -0.629025        -1.821585
 H         0.471299         1.600286        -1.211935
 H         2.525635         3.308084        -0.633246
 H         3.494725         1.888132        -0.574215
 H         2.212808         0.331950         1.081175
