19
Iteration:  1690
 O         4.312939         2.872349        -2.672419
 C         3.068987         2.435911        -2.406832
 C         2.150345         2.693564        -3.451450
 C         2.520082         1.195504        -3.143841
 C         1.696200         0.350195        -2.162367
 C         1.393566         1.266689        -0.885371
 C         2.574758         2.378433        -0.919529
 C         1.355847         0.401083         0.421646
 O         0.379885        -0.027391         0.954794
 H         5.056833         2.214962        -2.695549
 H         1.000240         2.856605        -3.317463
 H         2.594797         3.042147        -4.362028
 H         3.074613         0.723602        -3.906804
 H         0.699836         0.122333        -2.708170
 H         2.281980        -0.512750        -1.848275
 H         0.384550         1.671752        -0.810749
 H         2.269495         3.308561        -0.400792
 H         3.474758         2.050551        -0.433070
 H         2.470940         0.347702         0.866170
