19
Iteration:    75
 O         4.290884         3.020785        -2.322892
 C         3.025803         2.410804        -2.421760
 C         2.223667         2.547212        -3.653035
 C         2.576684         1.136503        -3.175071
 C         1.769789         0.273495        -2.246593
 C         1.370283         0.956170        -1.002579
 C         2.220332         2.287595        -1.073548
 C         1.496308         0.431757         0.427882
 O         0.519648         0.391945         1.146886
 H         4.955317         2.586369        -2.930096
 H         1.209659         2.731947        -3.378286
 H         2.622782         2.853905        -4.607865
 H         3.042703         0.540221        -3.909244
 H         0.922362        -0.158909        -2.803593
 H         2.353253        -0.636380        -2.094995
 H         0.243004         1.296772        -1.052022
 H         1.594242         3.185507        -0.918159
 H         2.866823         2.386079        -0.208958
 H         2.546056         0.104734         0.802580
