19
Iteration:  2910charge 0 multiplicity 1
 O         4.275923         3.033284        -2.433462
 C         3.075540         2.302165        -2.341579
 C         1.979673         2.448861        -3.424647
 C         2.608992         1.005528        -3.149598
 C         1.840837         0.252371        -2.103771
 C         1.446513         1.317525        -1.043162
 C         2.624560         2.267812        -0.977923
 C         1.370861         0.564217         0.329803
 O         0.335262         0.244113         0.877733
 H         4.305081         3.413847        -3.320193
 H         0.943347         2.510945        -3.129562
 H         2.006389         2.924663        -4.443829
 H         3.311422         0.423282        -3.830272
 H         0.861516        -0.207289        -2.387252
 H         2.275288        -0.624357        -1.647431
 H         0.440202         1.776558        -1.319215
 H         2.339196         3.333594        -0.576788
 H         3.503283         1.832756        -0.373775
 H         2.387626         0.284775         0.785658
