19
Iteration:  1594
 O         4.428042         2.870632        -2.658321
 C         3.122074         2.438327        -2.423625
 C         2.138877         2.695749        -3.523242
 C         2.537730         1.266052        -3.048549
 C         1.553967         0.370913        -2.136697
 C         1.401826         1.255533        -0.775885
 C         2.626169         2.288778        -0.971175
 C         1.331247         0.381829         0.406515
 O         0.388878        -0.069413         0.973850
 H         4.186210         3.406499        -3.420667
 H         1.124300         2.875430        -3.207607
 H         2.362290         2.979864        -4.497576
 H         3.185771         0.831349        -3.762402
 H         0.655400         0.199665        -2.673025
 H         2.059977        -0.589687        -2.026480
 H         0.393666         1.698296        -1.096567
 H         2.160674         3.301120        -0.780295
 H         3.372059         1.973234        -0.128398
 H         2.408630         0.132342         0.555270
