19
Iteration:  3659charge 0 multiplicity 1
 O         4.280765         3.003293        -2.545132
 C         3.017816         2.346927        -2.364654
 C         2.121345         2.497267        -3.684311
 C         2.661150         1.226404        -3.148862
 C         1.857479         0.223560        -2.155750
 C         1.443500         1.065456        -0.939106
 C         2.487034         2.152484        -0.995246
 C         1.331563         0.390365         0.411495
 O         0.302811         0.455957         1.113001
 H         4.047757         3.959315        -2.698046
 H         1.033651         2.751809        -3.600946
 H         2.685533         2.940754        -4.534399
 H         3.360016         0.811900        -3.917701
 H         1.060452        -0.491334        -2.478868
 H         2.751929        -0.362763        -1.879238
 H         0.488395         1.507355        -1.014817
 H         2.156922         3.077603        -0.505682
 H         3.431698         1.933152        -0.341359
 H         2.118066        -0.294927         0.739259
