19
Iteration:  4124
 O         4.392092         2.973367        -2.510448
 C         3.098224         2.337221        -2.379818
 C         2.054579         2.360924        -3.500893
 C         2.656995         1.049013        -3.017088
 C         1.759621         0.262718        -2.134902
 C         1.285471         1.255817        -1.017413
 C         2.470634         2.417860        -1.008045
 C         1.398217         0.576700         0.360808
 O         0.411252         0.178837         0.938762
 H         4.240095         3.942250        -2.723473
 H         1.009716         2.578222        -3.272469
 H         2.262976         2.595680        -4.613534
 H         3.171344         0.599741        -3.784199
 H         0.920040        -0.299172        -2.534465
 H         2.401613        -0.491859        -1.805145
 H         0.360386         1.737606        -1.123924
 H         2.053309         3.346496        -0.695356
 H         3.170614         2.086428        -0.316374
 H         2.393152         0.347854         0.718369
