19
Iteration:  2229charge 0 multiplicity 1
 O         4.268038         2.987133        -2.597403
 C         3.020968         2.437259        -2.351661
 C         2.036617         2.505297        -3.619943
 C         2.578692         1.144441        -3.089717
 C         1.913507         0.262317        -2.031897
 C         1.525253         1.200796        -0.914682
 C         2.605884         2.258407        -0.872671
 C         1.346665         0.409476         0.384682
 O         0.242976         0.297901         0.870657
 H         4.331713         3.221357        -3.567815
 H         0.896946         2.508174        -3.543203
 H         2.301965         2.787224        -4.610064
 H         3.361901         0.578403        -3.632085
 H         0.818193        -0.207495        -2.240030
 H         2.573721        -0.607991        -1.697117
 H         0.571859         1.740585        -0.998048
 H         2.460619         3.205100        -0.276166
 H         3.506753         1.828599        -0.373102
 H         2.179176        -0.215555         0.847762
