19
Iteration:  3629charge 0 multiplicity 1
 O         4.322397         2.919211        -2.575535
 C         3.028827         2.379318        -2.307753
 C         1.881093         2.346002        -3.489811
 C         2.724820         1.172837        -3.017169
 C         1.883637         0.189082        -2.128665
 C         1.457357         1.175047        -1.063650
 C         2.526409         2.284242        -0.946028
 C         1.284278         0.497709         0.216022
 O         0.395509         0.399276         0.995622
 H         4.354191         3.809255        -2.146983
 H         0.938099         2.629491        -3.055127
 H         2.264474         2.939166        -4.345045
 H         3.390524         0.869620        -3.902928
 H         0.950677        -0.168344        -2.588137
 H         2.495391        -0.618098        -1.787102
 H         0.529487         1.666071        -1.291575
 H         1.980575         3.190365        -0.716341
 H         3.342380         2.011939        -0.186151
 H         2.346743         0.048395         0.472527
