19
Iteration:  2337
 O         4.420400         2.913705        -2.485956
 C         3.076063         2.357222        -2.418331
 C         2.102589         2.518643        -3.669690
 C         2.632494         1.151571        -3.065976
 C         1.780712         0.283298        -2.148047
 C         1.373984         1.145783        -0.972341
 C         2.320560         2.372337        -1.054540
 C         1.355210         0.392939         0.349153
 O         0.430715         0.291443         1.131432
 H         4.263349         3.875397        -2.315955
 H         1.013401         2.812570        -3.486755
 H         2.414285         2.718180        -4.717781
 H         3.308162         0.508839        -3.668707
 H         0.846003        -0.186356        -2.538298
 H         2.411841        -0.476459        -1.799893
 H         0.333475         1.490097        -0.939294
 H         1.945493         3.425179        -0.746283
 H         3.294690         2.106582        -0.474641
 H         2.372917        -0.212870         0.455315
