19
Iteration:  1816
 O         4.355544         2.857247        -2.606134
 C         2.988598         2.440842        -2.360626
 C         2.030993         2.634319        -3.435198
 C         2.489236         1.316433        -3.229050
 C         1.836245         0.290673        -2.237331
 C         1.481045         1.060755        -0.993979
 C         2.633325         2.140727        -0.898034
 C         1.327721         0.354835         0.368805
 O         0.307784         0.320138         1.068469
 H         4.443299         3.702947        -2.165416
 H         0.941892         2.833649        -3.134781
 H         2.331052         3.160506        -4.299816
 H         3.254242         0.925839        -3.933610
 H         1.105318        -0.386332        -2.649151
 H         2.718067        -0.392052        -2.058368
 H         0.514557         1.655384        -1.123678
 H         2.273753         3.035347        -0.392888
 H         3.650450         1.935236        -0.498666
 H         2.217394        -0.168770         0.615131
