19
Iteration:   757
 O         4.305882         3.047716        -2.675044
 C         3.103052         2.336935        -2.329866
 C         2.039451         2.560786        -3.341045
 C         2.632759         1.203968        -3.178826
 C         1.778378         0.280814        -2.280254
 C         1.431204         1.116120        -0.985720
 C         2.605437         2.142403        -0.941707
 C         1.318988         0.342227         0.319310
 O         0.340353         0.352153         1.096543
 H         4.248344         3.930351        -2.270161
 H         0.938290         2.597127        -2.903889
 H         2.361524         3.169322        -4.209939
 H         3.137035         0.759216        -4.035452
 H         0.917617        -0.060940        -2.808236
 H         2.359139        -0.616256        -2.013511
 H         0.467906         1.643716        -1.127011
 H         2.356853         3.072356        -0.442618
 H         3.317405         1.668274        -0.280273
 H         2.162212        -0.350417         0.534380
