19
Iteration:  2225charge 0 multiplicity 1
 O         4.271530         2.998222        -2.603647
 C         2.981562         2.451298        -2.371981
 C         2.016027         2.456799        -3.634343
 C         2.563378         1.187915        -3.071279
 C         1.909497         0.231435        -2.037239
 C         1.522054         1.188544        -0.861905
 C         2.644781         2.252204        -0.872624
 C         1.326303         0.396394         0.388080
 O         0.242856         0.305213         0.857555
 H         4.592659         3.201284        -3.484504
 H         0.956924         2.581690        -3.557795
 H         2.413929         2.823988        -4.635607
 H         3.352782         0.633722        -3.557605
 H         0.940620        -0.123490        -2.345218
 H         2.532840        -0.550572        -1.718782
 H         0.595065         1.731434        -1.041036
 H         2.490099         3.172798        -0.255444
 H         3.576966         1.777582        -0.338145
 H         2.259898        -0.065777         0.739082
