19
Iteration:  2085charge 0 multiplicity 1
 O         4.391007         2.907901        -2.575784
 C         3.063426         2.389312        -2.347266
 C         2.095944         2.489348        -3.461795
 C         2.554336         1.109266        -3.074532
 C         1.741730         0.307380        -2.135240
 C         1.368364         1.222368        -0.957376
 C         2.445114         2.312818        -0.957481
 C         1.391182         0.461946         0.301006
 O         0.413198         0.192727         0.958543
 H         4.342831         3.817217        -2.942968
 H         1.176320         2.830622        -3.091681
 H         2.366882         3.021016        -4.357349
 H         3.264498         0.678743        -3.742404
 H         0.845874        -0.114720        -2.680084
 H         2.502816        -0.437819        -1.802027
 H         0.403758         1.526116        -1.240075
 H         2.237029         3.357747        -0.679018
 H         3.217370         2.012870        -0.337736
 H         2.370596         0.186615         0.675312
