19
Iteration:    79charge 0 multiplicity 1
 O         4.247523         3.026837        -2.325639
 C         3.035943         2.400910        -2.405834
 C         2.233367         2.525423        -3.652231
 C         2.575288         1.129186        -3.121220
 C         1.756885         0.280217        -2.273667
 C         1.392633         0.956217        -1.026347
 C         2.233309         2.308501        -1.049448
 C         1.471443         0.454565         0.399244
 O         0.536312         0.388667         1.156389
 H         4.837649         2.507508        -2.858630
 H         1.171244         2.727259        -3.509697
 H         2.744071         2.828629        -4.588100
 H         3.089921         0.510872        -3.932067
 H         0.831028         0.021238        -2.795468
 H         2.297349        -0.656975        -2.167297
 H         0.379207         1.157197        -1.070355
 H         1.646246         3.208698        -0.945977
 H         2.984123         2.340853        -0.237535
 H         2.608483         0.064117         0.716117
