19
Iteration:  3213charge 0 multiplicity 1
 O         4.233893         2.978237        -2.489776
 C         3.034992         2.365163        -2.292717
 C         1.986115         2.410233        -3.470790
 C         2.727429         1.119006        -3.067696
 C         1.909264         0.226354        -2.210554
 C         1.414003         1.119276        -1.150425
 C         2.459691         2.219398        -0.897080
 C         1.237018         0.347861         0.138179
 O         0.525628         0.594499         1.130707
 H         4.224233         3.935293        -2.658290
 H         0.850546         2.451184        -3.459142
 H         2.441224         2.942323        -4.294606
 H         3.344230         0.650425        -3.874542
 H         1.129972        -0.240915        -2.815621
 H         2.491252        -0.636891        -1.778653
 H         0.431738         1.611035        -1.393121
 H         2.042499         3.192457        -0.342828
 H         3.257797         1.772055        -0.151021
 H         1.931873        -0.511434         0.265800
