19
Iteration:  4420
 O         4.311484         2.918671        -2.525969
 C         2.985393         2.429557        -2.396756
 C         2.006740         2.455003        -3.535691
 C         2.664585         1.087796        -3.031894
 C         1.894995         0.253420        -2.088177
 C         1.443520         1.180297        -1.022411
 C         2.509016         2.329020        -1.011709
 C         1.310047         0.439951         0.269130
 O         0.388359         0.360712         1.039305
 H         4.226145         3.870390        -2.408744
 H         0.878532         2.504822        -3.499285
 H         2.642072         2.765292        -4.427407
 H         3.417338         0.486163        -3.577644
 H         1.053212        -0.124316        -2.727341
 H         2.318865        -0.709628        -1.752874
 H         0.465887         1.610492        -1.067493
 H         2.104141         3.329873        -0.779975
 H         3.377003         2.060896        -0.366098
 H         2.063893        -0.354140         0.538509
