19
Iteration:   455
 O         4.244618         2.979982        -2.482214
 C         3.049550         2.368724        -2.382278
 C         2.003405         2.419036        -3.550536
 C         2.597204         1.108541        -3.085151
 C         1.611364         0.370279        -2.142818
 C         1.546046         1.279295        -0.859428
 C         2.621207         2.298278        -0.910046
 C         1.434670         0.619434         0.471937
 O         0.417275         0.031116         0.749216
 H         4.665834         2.978645        -3.386549
 H         1.009573         2.342675        -3.416998
 H         2.349968         3.004575        -4.337800
 H         3.154580         0.583496        -3.902088
 H         0.570632         0.331189        -2.558092
 H         1.912374        -0.577863        -1.917280
 H         0.611386         1.869094        -0.887240
 H         2.330322         3.314959        -0.536718
 H         3.490242         2.019535        -0.445381
 H         2.468899         0.393836         0.949855
