19
Iteration:  2630
 O         4.327417         2.819352        -2.600670
 C         3.012372         2.475225        -2.413386
 C         2.025662         2.551183        -3.600035
 C         2.622423         1.238553        -3.138614
 C         1.919138         0.238615        -2.174491
 C         1.520837         1.104880        -0.877741
 C         2.554867         2.246912        -0.986698
 C         1.267204         0.546068         0.504605
 O         0.236767         0.209113         1.031720
 H         4.511815         3.689829        -2.954376
 H         0.874244         2.608758        -3.455321
 H         2.478761         3.058724        -4.436353
 H         3.385922         0.737773        -3.679746
 H         1.084491        -0.193352        -2.649071
 H         2.623533        -0.574665        -2.129180
 H         0.532359         1.546333        -1.115044
 H         2.139067         3.201771        -0.584356
 H         3.565706         2.076030        -0.448471
 H         2.215155         0.573880         1.126950
