19
Iteration:  3007
 O         4.256821         3.112658        -2.307386
 C         3.062013         2.308894        -2.375780
 C         1.959049         2.479768        -3.395360
 C         2.661980         1.077676        -3.120687
 C         1.869167         0.113406        -2.171755
 C         1.424997         1.115393        -1.144698
 C         2.527945         2.147099        -1.022092
 C         1.342269         0.430128         0.249487
 O         0.441985         0.585937         1.017532
 H         4.251792         3.713549        -3.051625
 H         0.899153         2.603707        -3.035053
 H         2.048693         2.527817        -4.522419
 H         3.263080         0.619554        -4.010818
 H         1.180340        -0.278828        -2.906309
 H         2.379951        -0.751467        -1.767802
 H         0.399509         1.619951        -1.348118
 H         2.137147         3.167673        -0.653146
 H         3.356087         1.776124        -0.459147
 H         2.253098        -0.222557         0.508885
