19
Iteration:  4589
 O         4.330103         2.958246        -2.587134
 C         3.043411         2.391602        -2.404014
 C         2.107274         2.380276        -3.724268
 C         2.560256         1.058755        -3.066358
 C         1.805773         0.294513        -2.029973
 C         1.460869         1.263252        -0.872467
 C         2.582675         2.385618        -0.919465
 C         1.339368         0.554546         0.421127
 O         0.307087         0.147555         0.918942
 H         4.221495         3.922202        -2.717187
 H         1.073233         2.678698        -3.765145
 H         2.565304         2.625650        -4.673132
 H         3.238047         0.469673        -3.858143
 H         0.893642        -0.242690        -2.296063
 H         2.363816        -0.562962        -1.567814
 H         0.432222         1.566323        -1.164397
 H         2.034357         3.385531        -0.456345
 H         3.449270         2.236502        -0.209186
 H         2.253425         0.286909         0.874083
