19
Iteration:  2276charge 0 multiplicity 1
 O         4.451483         2.952431        -2.603735
 C         3.034268         2.369678        -2.421140
 C         1.944285         2.430056        -3.402673
 C         2.682101         1.082634        -3.068769
 C         1.811331         0.235647        -2.161523
 C         1.404478         1.176210        -1.014609
 C         2.406736         2.324205        -0.975751
 C         1.351414         0.548648         0.313652
 O         0.364563         0.266040         0.993714
 H         4.670727         3.814179        -2.182846
 H         1.035970         2.782251        -3.028046
 H         2.214163         2.806432        -4.437894
 H         3.225785         0.691611        -3.907262
 H         1.022021        -0.414037        -2.650338
 H         2.582185        -0.478349        -1.562109
 H         0.439393         1.740591        -1.251611
 H         2.062526         3.227824        -0.517536
 H         3.215587         2.043305        -0.365241
 H         2.375307         0.287855         0.759561
