19
Iteration:  1607
 O         4.421878         2.788260        -2.651953
 C         3.052981         2.429094        -2.380167
 C         2.071002         2.640930        -3.489036
 C         2.505427         1.204694        -3.123483
 C         1.672424         0.423390        -2.205323
 C         1.382146         1.317927        -0.877221
 C         2.558271         2.382683        -0.913452
 C         1.376874         0.410494         0.422458
 O         0.400974        -0.095757         0.965696
 H         4.521027         3.675652        -3.063263
 H         1.154685         3.099334        -3.327774
 H         2.545777         2.990934        -4.341926
 H         3.129875         0.608904        -3.791862
 H         0.720783         0.186774        -2.611827
 H         2.161922        -0.557327        -1.906436
 H         0.405996         1.862388        -0.833646
 H         2.396211         3.291403        -0.330857
 H         3.537581         1.958258        -0.482900
 H         2.346327         0.082507         0.796038
