19
Iteration:   945charge 0 multiplicity 1
 O         4.303936         2.764301        -2.706347
 C         3.080206         2.363078        -2.294711
 C         2.066540         2.578485        -3.416840
 C         2.621757         1.199532        -3.005337
 C         1.685810         0.458415        -2.185936
 C         1.405850         1.280030        -0.928642
 C         2.476408         2.334839        -0.900318
 C         1.373401         0.440230         0.281884
 O         0.467321         0.037523         0.931188
 H         4.400470         3.705155        -2.670885
 H         1.037613         2.750142        -3.296962
 H         2.509928         3.022876        -4.256007
 H         3.458174         0.718587        -3.640140
 H         0.833548         0.241268        -2.755884
 H         2.115375        -0.538050        -2.065634
 H         0.530692         1.804803        -1.099475
 H         2.069492         3.222403        -0.510690
 H         3.296365         1.987779        -0.277335
 H         2.405000         0.390835         0.703593
