19
Iteration:  1469charge 0 multiplicity 1
 O         4.418066         2.874238        -2.603808
 C         3.035516         2.450347        -2.402145
 C         1.885881         2.663172        -3.430758
 C         2.510478         1.219402        -3.091422
 C         1.776473         0.295092        -2.216037
 C         1.494849         1.100447        -0.933917
 C         2.621587         2.204429        -0.848064
 C         1.426078         0.271425         0.271717
 O         0.339694         0.316648         0.969272
 H         4.386051         3.887658        -2.595828
 H         0.870886         2.898213        -2.971738
 H         2.275344         3.224210        -4.414482
 H         3.098622         0.704433        -3.879995
 H         0.777573        -0.107749        -2.605298
 H         2.394368        -0.504200        -2.040525
 H         0.579798         1.637131        -1.031209
 H         2.259039         3.127573        -0.379769
 H         3.411063         1.991540        -0.187164
 H         2.330894        -0.362978         0.396329
