19
Iteration:  1672charge 0 multiplicity 1
 O         4.451659         2.876849        -2.624299
 C         3.065824         2.328790        -2.364240
 C         1.983681         2.627347        -3.437952
 C         2.419374         1.187259        -3.138196
 C         1.676447         0.387709        -2.158813
 C         1.450974         1.327074        -0.895040
 C         2.536778         2.339188        -0.941215
 C         1.394759         0.485889         0.384688
 O         0.437574        -0.022908         0.880931
 H         5.078565         2.483371        -1.941772
 H         1.153010         3.052248        -3.006162
 H         2.299262         3.107684        -4.338995
 H         3.033641         0.768028        -3.982130
 H         0.849006        -0.147410        -2.527564
 H         2.308115        -0.484892        -1.897586
 H         0.380679         1.659722        -1.136402
 H         2.143080         3.380062        -0.920495
 H         3.296622         2.112873        -0.134121
 H         2.412311         0.205466         0.713139
