19
Iteration:  3735
 O         4.294140         3.004399        -2.416065
 C         2.998247         2.391118        -2.286420
 C         1.996940         2.394768        -3.480400
 C         2.626890         1.073002        -3.017057
 C         1.849916         0.132074        -2.246719
 C         1.358462         1.137962        -1.129486
 C         2.460865         2.259322        -0.947544
 C         1.380869         0.452571         0.196353
 O         0.499729         0.540708         1.066048
 H         4.416184         3.381165        -3.327981
 H         0.971979         2.754736        -3.331524
 H         2.473857         2.887094        -4.403416
 H         3.634043         0.756818        -3.483606
 H         1.037865        -0.358703        -2.855812
 H         2.558446        -0.718876        -2.046094
 H         0.377742         1.699253        -1.355417
 H         1.882037         3.081745        -0.521906
 H         3.167223         2.008430        -0.171489
 H         2.228557        -0.287041         0.377152
