19
Iteration:  2832charge 0 multiplicity 1
 O         4.424266         2.776127        -2.622100
 C         3.101539         2.428215        -2.453137
 C         2.128227         2.460082        -3.621590
 C         2.532365         1.134812        -3.054826
 C         1.752416         0.337236        -1.935631
 C         1.522521         1.353104        -0.785980
 C         2.419337         2.564821        -1.076638
 C         1.358203         0.484542         0.419111
 O         0.305220        -0.069592         0.835404
 H         4.422319         3.728009        -2.752260
 H         1.156387         2.881537        -3.395578
 H         2.422571         2.741423        -4.576416
 H         3.121198         0.588066        -3.717123
 H         0.794398        -0.033362        -2.275454
 H         2.420027        -0.387749        -1.490225
 H         0.412040         1.637361        -0.741792
 H         1.813732         3.541147        -0.809853
 H         3.232133         2.517163        -0.256033
 H         2.278023         0.315400         1.029021
