19
Iteration:  2699charge 0 multiplicity 1
 O         4.435161         2.868878        -2.619845
 C         3.042476         2.406526        -2.359551
 C         2.004739         2.354187        -3.493322
 C         2.618533         1.096212        -2.938943
 C         1.707610         0.313734        -1.998377
 C         1.357915         1.446302        -0.897987
 C         2.583717         2.411523        -0.974753
 C         1.357104         0.531175         0.227346
 O         0.394398         0.063848         0.821120
 H         4.173147         3.775098        -2.857538
 H         0.931178         2.453200        -3.281152
 H         2.366784         2.787505        -4.484894
 H         3.256556         0.545364        -3.730761
 H         0.826113        -0.193333        -2.356526
 H         2.254091        -0.556358        -1.507202
 H         0.336492         1.803959        -1.136054
 H         2.280367         3.472494        -0.590788
 H         3.328091         1.999313        -0.218539
 H         2.429736         0.272136         0.497580
