19
Iteration:   177
 O         4.280760         2.822103        -2.269097
 C         2.946513         2.434242        -2.406255
 C         2.117418         2.607715        -3.709327
 C         2.746920         1.157835        -3.076886
 C         1.702114         0.265267        -2.400625
 C         1.375453         0.987473        -0.985349
 C         2.218933         2.309866        -1.011713
 C         1.492289         0.327511         0.341902
 O         0.637463         0.501800         1.179841
 H         4.352215         3.765620        -2.411457
 H         0.985344         2.683989        -3.654590
 H         2.626290         2.796352        -4.648815
 H         3.506119         0.732487        -3.797574
 H         0.795330         0.117147        -2.916651
 H         2.180367        -0.679053        -2.246165
 H         0.327846         1.255848        -0.959051
 H         1.514866         3.108266        -1.001494
 H         2.909308         2.375648        -0.182922
 H         2.440861        -0.408674         0.574973
