19
Iteration:  4770charge 0 multiplicity 1
 O         4.279343         3.037825        -2.485442
 C         3.063760         2.318331        -2.408325
 C         2.018337         2.417916        -3.457223
 C         2.719378         1.049070        -3.081394
 C         1.856862         0.150987        -2.228443
 C         1.415440         1.132608        -1.023727
 C         2.413247         2.281853        -0.990702
 C         1.320352         0.386944         0.291859
 O         0.428444         0.571977         1.067971
 H         4.075691         3.986702        -2.510658
 H         0.945111         2.360482        -3.066453
 H         2.412069         2.893640        -4.451948
 H         3.726046         0.733673        -3.681647
 H         1.136977        -0.402215        -2.897207
 H         2.384941        -0.596385        -1.658618
 H         0.410864         1.543535        -1.261663
 H         2.004331         3.241095        -0.749372
 H         3.338850         1.961475        -0.403517
 H         2.068588        -0.315697         0.473038
