19
Iteration:  1525
 O         4.363202         2.888598        -2.440611
 C         3.048353         2.455492        -2.388268
 C         1.964844         2.601022        -3.374740
 C         2.462331         1.287223        -3.152732
 C         1.773878         0.250598        -2.206959
 C         1.374227         1.263409        -0.981541
 C         2.630716         2.167824        -0.932804
 C         1.431911         0.469001         0.274632
 O         0.420296         0.159830         0.953041
 H         4.612190         2.906681        -3.353833
 H         0.908302         2.823453        -3.041261
 H         2.229994         2.986994        -4.466650
 H         3.004906         0.833332        -4.029416
 H         0.754507        -0.149013        -2.477810
 H         2.387693        -0.520123        -1.879069
 H         0.422987         1.767617        -1.017055
 H         2.577610         3.079014        -0.298043
 H         3.415927         1.495974        -0.632033
 H         2.430754         0.074469         0.484689
