19
Iteration:  4608charge 0 multiplicity 1
 O         4.335509         2.987573        -2.565756
 C         3.008244         2.384407        -2.497398
 C         2.131349         2.405518        -3.622476
 C         2.635738         1.065292        -3.128723
 C         1.830390         0.324795        -2.039198
 C         1.441755         1.312171        -0.843163
 C         2.519825         2.292935        -1.072647
 C         1.321076         0.481459         0.515157
 O         0.253323         0.166101         0.961533
 H         4.115492         3.897911        -2.901876
 H         1.059922         2.783147        -3.444599
 H         2.601294         2.787925        -4.500148
 H         3.411932         0.499635        -3.699906
 H         1.036539        -0.382510        -2.437081
 H         2.598600        -0.442720        -1.580380
 H         0.413339         1.715034        -0.916056
 H         2.493949         3.403746        -0.863674
 H         3.442527         1.935841        -0.622392
 H         2.252852         0.146562         1.225950
