19
Iteration:  1107charge 0 multiplicity 1
 O         4.349510         2.943181        -2.547549
 C         2.995016         2.450901        -2.412010
 C         1.946319         2.647284        -3.421363
 C         2.617549         1.178903        -3.122561
 C         1.766285         0.301443        -2.115192
 C         1.565659         1.127825        -0.918012
 C         2.629789         2.212612        -0.919920
 C         1.402601         0.319036         0.333150
 O         0.274616         0.256541         0.875474
 H         4.238910         3.598670        -3.306771
 H         0.895280         2.777908        -3.124249
 H         2.251757         3.168387        -4.263328
 H         3.061546         0.503986        -3.978126
 H         0.770543        -0.040442        -2.478246
 H         2.338144        -0.699493        -1.794017
 H         0.650729         1.653595        -1.069712
 H         2.223354         3.089899        -0.399403
 H         3.699966         1.982053        -0.496725
 H         2.320844        -0.080444         0.906416
