19
Iteration:  2906
 O         4.263187         3.024628        -2.449953
 C         3.064549         2.287939        -2.373042
 C         1.998320         2.453920        -3.390079
 C         2.643401         1.021640        -3.142956
 C         1.783535         0.224288        -2.111674
 C         1.438874         1.339860        -1.017802
 C         2.603318         2.267033        -0.942562
 C         1.383841         0.591449         0.288739
 O         0.345857         0.228778         0.868364
 H         4.423383         3.478675        -3.315833
 H         0.937616         2.391781        -3.141640
 H         2.052490         2.768150        -4.401579
 H         3.371607         0.544071        -3.721413
 H         0.818472        -0.160951        -2.313819
 H         2.427607        -0.584170        -1.654679
 H         0.483127         1.781107        -1.293624
 H         2.467768         3.278673        -0.561790
 H         3.418488         1.821757        -0.425012
 H         2.377834         0.401013         0.741004
