19
Iteration:  2032
 O         4.343253         3.039649        -2.378898
 C         3.058044         2.386511        -2.451210
 C         2.152902         2.548251        -3.620410
 C         2.582181         1.086556        -3.153348
 C         1.593148         0.301084        -2.139323
 C         1.369412         1.222240        -0.919020
 C         2.410093         2.298792        -0.937618
 C         1.433098         0.370323         0.295862
 O         0.498462         0.246995         1.018593
 H         4.972135         2.639914        -3.010731
 H         1.109882         2.718993        -3.572536
 H         2.547947         2.729998        -4.625108
 H         3.174741         0.647414        -3.909280
 H         0.647586        -0.123311        -2.561576
 H         2.195813        -0.574749        -1.708113
 H         0.322365         1.605969        -0.981338
 H         2.161199         3.345668        -0.559141
 H         3.260157         2.056778        -0.194361
 H         2.470221        -0.183400         0.329775
