19
Iteration:  3301
 O         4.261247         2.898451        -2.541743
 C         3.036755         2.381594        -2.292295
 C         1.966583         2.444256        -3.385010
 C         2.620774         1.111565        -3.076162
 C         1.869771         0.161316        -2.136634
 C         1.449049         1.223419        -1.051274
 C         2.528127         2.236023        -0.936456
 C         1.393690         0.581095         0.246733
 O         0.401897         0.355214         0.865559
 H         4.181770         3.849239        -2.662954
 H         0.934136         2.781261        -3.197881
 H         2.349009         2.728155        -4.436226
 H         3.368992         0.667326        -3.646115
 H         0.979304        -0.205642        -2.602909
 H         2.550731        -0.537630        -1.633893
 H         0.408946         1.614459        -1.258839
 H         2.084254         3.153056        -0.342328
 H         3.224654         1.862876        -0.118990
 H         2.446608         0.361299         0.618834
