19
Iteration:  3317
 O         4.356023         2.983575        -2.598448
 C         3.029770         2.367806        -2.378041
 C         2.037970         2.464602        -3.497041
 C         2.661877         1.075641        -3.017313
 C         1.803483         0.209332        -2.126078
 C         1.406916         1.188934        -1.021982
 C         2.556968         2.311448        -0.893295
 C         1.300283         0.566687         0.343688
 O         0.347867         0.226679         0.950434
 H         4.247265         3.894577        -2.826570
 H         1.008351         2.451166        -3.138901
 H         2.182744         2.967187        -4.401878
 H         3.353060         0.773304        -3.887632
 H         0.872575        -0.273380        -2.555315
 H         2.431425        -0.653593        -1.802551
 H         0.530166         1.738214        -1.347098
 H         2.210742         3.289992        -0.518783
 H         3.482199         1.946135        -0.474883
 H         2.367250         0.291465         0.736174
