19
Iteration:  2313
 O         4.262536         2.810775        -2.489774
 C         2.905097         2.472479        -2.388482
 C         2.108178         2.480003        -3.709929
 C         2.600583         1.087576        -3.195927
 C         1.877065         0.257947        -2.177699
 C         1.463052         1.253911        -0.971219
 C         2.472378         2.361587        -0.931448
 C         1.382359         0.436649         0.347328
 O         0.382772         0.276784         1.100496
 H         4.359686         3.449568        -1.776555
 H         1.084925         3.022051        -3.794921
 H         2.772808         2.935849        -4.396561
 H         3.375320         0.498538        -3.746302
 H         1.043016        -0.303743        -2.459670
 H         2.610052        -0.446707        -1.715542
 H         0.456622         1.727607        -0.958907
 H         1.891096         3.244696        -0.576456
 H         3.426917         2.202145        -0.347184
 H         2.458830         0.068136         0.658704
