19
Iteration:  3676
 O         4.324233         3.062051        -2.477885
 C         3.004512         2.484407        -2.492907
 C         2.115962         2.536805        -3.610954
 C         2.590677         1.029244        -3.183299
 C         1.910885         0.153999        -2.181388
 C         1.425069         1.028439        -0.979968
 C         2.541392         2.251054        -0.916976
 C         1.279491         0.320807         0.379731
 O         0.314451         0.484676         1.175549
 H         4.228995         3.924011        -3.002693
 H         1.101694         2.933924        -3.592009
 H         2.640360         2.700213        -4.518262
 H         3.279795         0.538106        -3.811829
 H         1.020955        -0.162671        -2.692562
 H         2.536585        -0.752906        -1.950786
 H         0.434532         1.567623        -1.412250
 H         2.027183         3.099330        -0.355423
 H         3.331422         1.907000        -0.368281
 H         2.276571        -0.146021         0.714753
