19
Iteration:   468
 O         4.332566         2.991908        -2.563907
 C         3.046326         2.369688        -2.412821
 C         2.075313         2.510030        -3.498413
 C         2.578955         1.087141        -3.060717
 C         1.621936         0.366854        -2.140312
 C         1.486089         1.278759        -0.842854
 C         2.590736         2.351639        -1.009929
 C         1.431450         0.510747         0.449471
 O         0.379298        -0.032807         0.854885
 H         4.432880         3.041947        -3.513998
 H         1.150099         2.938042        -3.221057
 H         2.436236         2.805068        -4.487342
 H         3.288009         0.465861        -3.661686
 H         0.611518         0.341349        -2.620713
 H         1.942561        -0.652959        -1.944079
 H         0.448642         1.710481        -0.928655
 H         2.187298         3.350965        -0.677736
 H         3.430357         2.246883        -0.313551
 H         2.231952         0.703566         1.232176
