19
Iteration:   397charge 0 multiplicity 1
 O         4.384852         3.018215        -2.733081
 C         3.095091         2.389336        -2.411343
 C         2.044583         2.525774        -3.394807
 C         2.528328         1.210184        -3.091722
 C         1.920129         0.265998        -2.095158
 C         1.460203         1.212146        -0.855177
 C         2.608367         2.352287        -0.919513
 C         1.251427         0.389359         0.351808
 O         0.232674         0.075099         0.941082
 H         4.520623         3.097914        -3.679376
 H         0.999714         2.920851        -2.996350
 H         2.139591         3.099577        -4.375516
 H         2.993649         0.728651        -3.920538
 H         1.096302        -0.337746        -2.387023
 H         2.629827        -0.468946        -1.637225
 H         0.536901         1.720200        -1.029449
 H         2.163819         3.350323        -0.711058
 H         3.451345         2.123339        -0.239247
 H         2.203832         0.133039         0.968690
