19
Iteration:  3610charge 0 multiplicity 1
 O         4.405935         2.953445        -2.587521
 C         3.063764         2.391218        -2.378302
 C         1.945618         2.413571        -3.355435
 C         2.629434         1.055815        -3.057672
 C         1.897277         0.198725        -2.137753
 C         1.364939         1.231081        -1.076991
 C         2.441253         2.354942        -0.929997
 C         1.373523         0.476748         0.279351
 O         0.382176         0.357661         0.921112
 H         4.534385         3.843442        -2.267655
 H         0.951181         2.453374        -3.010148
 H         2.040584         2.616674        -4.425312
 H         3.277677         0.561973        -3.796749
 H         1.086178        -0.317213        -2.651041
 H         2.566446        -0.550415        -1.606341
 H         0.201004         1.541148        -1.096079
 H         2.165456         3.373942        -0.562349
 H         3.199612         2.037191        -0.311019
 H         2.297037         0.007092         0.596493
