19
Iteration:  1583
 O         4.430615         2.958820        -2.655680
 C         3.143975         2.378512        -2.370974
 C         2.093507         2.664546        -3.477243
 C         2.525791         1.201406        -3.089523
 C         1.541590         0.391267        -2.135006
 C         1.429477         1.262169        -0.923651
 C         2.579600         2.284403        -0.925774
 C         1.403058         0.325292         0.356683
 O         0.366412        -0.024218         0.980017
 H         4.627587         3.279737        -3.575684
 H         1.096576         3.041948        -3.237453
 H         2.414740         2.967541        -4.435576
 H         3.086263         0.661732        -3.816992
 H         0.533888         0.205415        -2.443572
 H         1.988325        -0.575454        -1.866648
 H         0.461374         1.872980        -0.763047
 H         2.188058         3.293141        -0.600618
 H         3.481208         2.240740        -0.190577
 H         2.285851        -0.037771         0.858785
