19
Iteration:  3837
 O         4.293528         2.921079        -2.556892
 C         3.008490         2.317194        -2.310309
 C         2.050683         2.350815        -3.432612
 C         2.740702         1.007596        -3.105718
 C         1.891968         0.244817        -2.199221
 C         1.380945         1.270113        -1.101677
 C         2.345365         2.420567        -0.911076
 C         1.316554         0.522323         0.224293
 O         0.495991         0.350365         1.090899
 H         4.310228         3.753742        -2.122613
 H         1.032302         2.623150        -3.217129
 H         2.377048         2.755816        -4.366927
 H         3.514145         0.713562        -3.746127
 H         0.962802         0.020866        -2.827429
 H         2.352594        -0.665036        -1.762436
 H         0.471788         1.607695        -1.415148
 H         1.871255         3.375604        -0.834952
 H         2.994051         2.048798        -0.129559
 H         2.185821        -0.172358         0.250042
