19
Iteration:  2205charge 0 multiplicity 1
 O         4.268843         3.073994        -2.518285
 C         2.981579         2.486294        -2.412900
 C         1.936848         2.411146        -3.535115
 C         2.666934         1.089189        -3.059965
 C         1.860108         0.278826        -2.116536
 C         1.580870         1.240466        -0.946125
 C         2.730567         2.244391        -0.985542
 C         1.283720         0.443547         0.443550
 O         0.199891         0.247056         0.899070
 H         4.516015         2.660833        -3.364379
 H         0.877758         2.696774        -3.479916
 H         2.285617         2.683963        -4.558596
 H         3.252484         0.559307        -3.827346
 H         0.893739        -0.296660        -2.480837
 H         2.523692        -0.509364        -1.712041
 H         0.687839         1.837658        -0.986018
 H         2.610899         3.172827        -0.331894
 H         3.773254         1.851808        -0.649853
 H         2.097301        -0.102909         0.985255
