19
Iteration:  3345charge 0 multiplicity 1
 O         4.352346         2.990924        -2.658561
 C         3.081996         2.340501        -2.455412
 C         2.139635         2.461545        -3.651634
 C         2.645218         1.112577        -3.092279
 C         1.826889         0.373453        -2.086518
 C         1.470647         1.291170        -0.903490
 C         2.516429         2.361981        -0.982052
 C         1.312036         0.365347         0.577310
 O         0.195614         0.097893         1.012934
 H         4.194062         3.916425        -2.832504
 H         1.083477         2.585024        -3.427080
 H         2.431534         2.779085        -4.719383
 H         3.202747         0.705271        -3.827398
 H         0.913386        -0.028425        -2.480146
 H         2.571606        -0.361098        -1.729302
 H         0.493134         1.834682        -1.111104
 H         2.265747         3.421431        -0.641905
 H         3.451379         2.149217        -0.391286
 H         2.223244        -0.104142         0.952579
