19
Iteration:  1848
 O         4.307157         3.005259        -2.572923
 C         3.076190         2.347174        -2.345805
 C         1.973863         2.512802        -3.273039
 C         2.554274         1.148148        -3.136481
 C         1.783947         0.254933        -2.221759
 C         1.414599         1.159079        -1.052015
 C         2.587488         2.233836        -0.918161
 C         1.341266         0.366362         0.168565
 O         0.439560         0.387654         0.994188
 H         4.690846         2.822678        -1.653697
 H         1.178219         3.016422        -2.652426
 H         2.051154         2.879164        -4.244123
 H         3.051327         0.887965        -4.106873
 H         0.884366        -0.030072        -2.716683
 H         2.410965        -0.582396        -1.903545
 H         0.438541         1.751329        -1.222262
 H         2.328781         3.210261        -0.490138
 H         3.477578         1.976372        -0.476008
 H         2.276357        -0.474251         0.396380
