19
Iteration:  4323charge 0 multiplicity 1
 O         4.271664         2.905415        -2.528067
 C         2.955173         2.397958        -2.383731
 C         1.960288         2.441152        -3.491624
 C         2.710295         1.133438        -3.085052
 C         1.981985         0.169876        -2.177108
 C         1.465994         1.161447        -1.001264
 C         2.526750         2.291222        -0.919609
 C         1.286049         0.398845         0.266377
 O         0.371560         0.536007         1.019852
 H         4.176296         3.835851        -2.284614
 H         0.779974         2.417444        -3.227362
 H         2.127128         2.840413        -4.494106
 H         3.502487         0.622142        -3.760246
 H         1.073356        -0.332294        -2.627220
 H         2.749726        -0.547727        -1.867319
 H         0.487614         1.485660        -1.418165
 H         2.182821         3.224093        -0.355334
 H         3.483661         1.986641        -0.400999
 H         2.021993        -0.506408         0.405286
