19
Iteration:     5
 O         4.297713         2.923980        -2.556828
 C         3.038429         2.404020        -2.376778
 C         1.985506         2.437925        -3.522338
 C         2.637599         1.137585        -3.075842
 C         1.920272         0.208757        -2.114858
 C         1.395760         1.192121        -0.997214
 C         2.485606         2.322234        -0.971894
 C         1.373469         0.462579         0.346282
 O         0.359324         0.346467         0.989882
 H         4.162789         3.903397        -2.658382
 H         0.884489         2.426478        -3.385201
 H         2.414925         2.996821        -4.396623
 H         3.357299         0.606308        -3.748393
 H         1.159360        -0.416924        -2.636419
 H         2.655460        -0.544139        -1.716528
 H         0.383778         1.473784        -1.218743
 H         2.134634         3.266617        -0.511889
 H         3.353168         2.063104        -0.307412
 H         2.454402        -0.076693         0.536001
