19
Iteration:  4368
 O         4.245931         2.954348        -2.541026
 C         3.046774         2.395516        -2.380800
 C         2.081518         2.523779        -3.423904
 C         2.672114         1.141804        -3.130327
 C         1.940640         0.082236        -2.186459
 C         1.434316         1.051997        -1.089278
 C         2.497847         2.220609        -1.020821
 C         1.318340         0.476973         0.329714
 O         0.325117         0.492662         1.090975
 H         4.035515         3.904778        -2.570451
 H         1.112542         2.889669        -3.093060
 H         2.309120         2.941858        -4.484341
 H         3.337782         0.811910        -3.833351
 H         1.083211        -0.407496        -2.679903
 H         2.668398        -0.583996        -1.758100
 H         0.392654         1.436112        -1.177007
 H         2.054798         3.173041        -0.543666
 H         3.317604         1.919410        -0.330627
 H         2.167725         0.055661         0.826284
