19
Iteration:   756
 O         4.310361         3.050585        -2.676015
 C         3.102378         2.341887        -2.332457
 C         2.045977         2.560018        -3.327527
 C         2.628740         1.204726        -3.179287
 C         1.770435         0.271909        -2.279201
 C         1.437230         1.113855        -0.990094
 C         2.601538         2.143762        -0.946889
 C         1.315250         0.337118         0.322695
 O         0.343699         0.354379         1.092142
 H         4.239969         3.949798        -2.263376
 H         0.940877         2.591775        -2.886470
 H         2.374998         3.166030        -4.218477
 H         3.122445         0.723626        -4.036627
 H         0.891213        -0.089140        -2.783970
 H         2.391959        -0.600585        -2.034381
 H         0.456736         1.681027        -1.135281
 H         2.351107         3.091435        -0.444888
 H         3.313395         1.703989        -0.278574
 H         2.151399        -0.367198         0.546882
