19
Iteration:  2876charge 0 multiplicity 1
 O         4.365691         2.963907        -2.609475
 C         3.039978         2.388246        -2.395731
 C         2.071480         2.447286        -3.526416
 C         2.635317         1.071905        -3.022516
 C         1.739386         0.354824        -2.049769
 C         1.424803         1.343826        -0.975040
 C         2.528658         2.344203        -0.895365
 C         1.332293         0.528389         0.412403
 O         0.350656         0.045175         0.857697
 H         4.352780         3.352156        -3.482603
 H         1.016276         2.462923        -3.435591
 H         2.383004         2.535114        -4.553235
 H         3.392346         0.435771        -3.457378
 H         0.726523         0.185359        -2.362531
 H         2.255614        -0.497925        -1.674316
 H         0.461114         1.834319        -1.338644
 H         2.393981         3.405289        -0.436318
 H         3.448842         1.914899        -0.376281
 H         2.359661         0.484404         0.906562
