19
Iteration:  2459charge 0 multiplicity 1
 O         4.313710         2.903274        -2.437434
 C         3.029511         2.436643        -2.363896
 C         2.084267         2.488245        -3.561220
 C         2.645361         1.130518        -3.109854
 C         1.809579         0.188519        -2.224018
 C         1.322332         1.080943        -1.038220
 C         2.416949         2.350526        -0.898977
 C         1.376529         0.413903         0.286558
 O         0.495057         0.469230         1.094077
 H         4.492855         2.990492        -3.407426
 H         1.060175         2.830292        -3.385952
 H         2.316688         2.747030        -4.616410
 H         3.513853         0.841287        -3.669348
 H         0.964861        -0.272291        -2.876179
 H         2.461096        -0.621918        -1.881238
 H         0.291335         1.387108        -1.242320
 H         1.817514         3.227454        -0.494806
 H         3.079738         2.130365        -0.017139
 H         2.366308        -0.276337         0.345398
