19
Iteration:  3130charge 0 multiplicity 1
 O         4.306059         2.871741        -2.377814
 C         2.977495         2.398523        -2.379141
 C         2.099546         2.486497        -3.637832
 C         2.662952         1.205819        -3.117316
 C         1.999999         0.189739        -2.287161
 C         1.281133         1.013444        -1.028982
 C         2.239433         2.254155        -0.971428
 C         1.281591         0.271637         0.235334
 O         0.616375         0.669013         1.210689
 H         4.214976         3.834125        -2.386237
 H         1.013136         2.704742        -3.399238
 H         2.550544         2.799051        -4.601972
 H         3.489113         0.886579        -3.642838
 H         1.267575        -0.246352        -3.005723
 H         2.688237        -0.590366        -1.992692
 H         0.234355         1.429118        -1.133682
 H         1.647508         3.078979        -0.575785
 H         3.125502         2.137400        -0.402899
 H         2.025778        -0.509299         0.397817
