19
Iteration:  3546charge 0 multiplicity 1
 O         4.400016         2.930415        -2.554065
 C         2.967927         2.423403        -2.417868
 C         2.077254         2.498341        -3.635290
 C         2.691110         1.105929        -3.033179
 C         1.793799         0.337381        -2.111773
 C         1.409229         1.220920        -0.898653
 C         2.489784         2.278607        -1.021047
 C         1.357078         0.526356         0.460307
 O         0.317998         0.138009         0.961353
 H         4.240345         3.737671        -3.040184
 H         1.055929         2.558873        -3.516620
 H         2.297889         2.677881        -4.691956
 H         3.413868         0.658443        -3.678996
 H         0.903949        -0.204358        -2.438703
 H         2.392973        -0.550196        -1.718527
 H         0.368197         1.690855        -1.141078
 H         2.221273         3.338519        -0.663295
 H         3.273038         1.977882        -0.298758
 H         2.426233         0.330331         0.896488
