19
Iteration:   845
 O         4.434662         2.800849        -2.633488
 C         3.085288         2.395284        -2.363412
 C         2.005706         2.688374        -3.348524
 C         2.650170         1.153608        -3.092005
 C         1.751191         0.267465        -2.274901
 C         1.392600         1.227425        -0.996211
 C         2.424628         2.406866        -0.975554
 C         1.327236         0.347911         0.332213
 O         0.428511         0.138426         1.088053
 H         4.418473         3.706445        -3.016401
 H         0.950819         2.777837        -2.994280
 H         2.279487         3.197040        -4.284091
 H         3.222108         0.920596        -3.950687
 H         0.876109        -0.007700        -2.772649
 H         2.278913        -0.609369        -1.899474
 H         0.363187         1.530879        -1.164657
 H         2.137215         3.373337        -0.649796
 H         3.210603         2.152178        -0.310441
 H         2.332427         0.080788         0.725981
