19
Iteration:  3331charge 0 multiplicity 1
 O         4.351756         2.978421        -2.618297
 C         3.103026         2.436991        -2.421348
 C         2.018486         2.394539        -3.483179
 C         2.680734         1.124439        -3.150296
 C         1.853539         0.301866        -2.133464
 C         1.393219         1.279350        -0.910436
 C         2.587551         2.319956        -1.013735
 C         1.295210         0.448119         0.425097
 O         0.256434         0.158581         1.016463
 H         4.185164         3.935620        -2.889593
 H         0.990088         2.799879        -3.399196
 H         2.566195         2.709969        -4.394495
 H         3.367995         0.435189        -3.709364
 H         0.972119        -0.135897        -2.679822
 H         2.340144        -0.598049        -1.724287
 H         0.381225         1.588965        -0.989422
 H         2.220105         3.204246        -0.669981
 H         3.296795         1.966183        -0.278974
 H         2.282344         0.242148         0.944094
