19
Iteration:  3177
 O         4.218778         3.076459        -2.262661
 C         3.054658         2.313203        -2.365567
 C         2.030572         2.440761        -3.494440
 C         2.718125         1.124961        -3.197159
 C         1.810295         0.188912        -2.312889
 C         1.359836         0.972139        -1.165230
 C         2.386630         2.091632        -0.959782
 C         1.377754         0.388951         0.284798
 O         0.557230         0.731136         1.132532
 H         4.164657         3.968554        -2.597292
 H         0.984652         2.535790        -3.413716
 H         2.501139         2.729555        -4.459726
 H         3.394099         0.585652        -4.012345
 H         0.878949        -0.095293        -2.865082
 H         2.299419        -0.711377        -1.974118
 H         0.380944         1.318596        -1.315820
 H         2.141401         3.081032        -0.705445
 H         3.278459         1.717272        -0.278043
 H         2.225081        -0.275540         0.574006
