19
Iteration:  1354
 O         4.318155         2.932769        -2.555797
 C         3.043274         2.382974        -2.335094
 C         1.927994         2.665220        -3.390611
 C         2.578844         1.238901        -3.135350
 C         1.758707         0.214781        -2.166028
 C         1.375816         1.197086        -1.054428
 C         2.577054         2.249142        -0.955855
 C         1.359430         0.324049         0.152070
 O         0.493777         0.314358         1.072675
 H         4.919567         2.436836        -1.914131
 H         0.948755         2.903008        -3.099823
 H         2.159513         3.116121        -4.386789
 H         3.343261         0.913354        -3.900419
 H         0.936559        -0.230315        -2.698959
 H         2.513805        -0.582672        -1.833531
 H         0.305413         1.526870        -1.243648
 H         2.360964         3.189723        -0.388210
 H         3.345943         1.816986        -0.283472
 H         2.236008        -0.295188         0.432180
