19
Iteration:  2926charge 0 multiplicity 1
 O         4.326452         3.052040        -2.470263
 C         3.077933         2.361988        -2.477665
 C         1.970067         2.402992        -3.493115
 C         2.595432         1.134719        -3.134962
 C         1.861865         0.226687        -2.115636
 C         1.505768         1.159735        -0.905874
 C         2.586344         2.268800        -0.969669
 C         1.325737         0.469983         0.360807
 O         0.250152         0.302525         0.955365
 H         4.615160         3.477531        -3.314661
 H         1.004632         2.866816        -3.172402
 H         2.483349         2.822586        -4.345994
 H         2.947014         0.639378        -3.992668
 H         0.993205        -0.267196        -2.635321
 H         2.708579        -0.456888        -1.833046
 H         0.570504         1.620916        -1.089920
 H         2.198769         3.182857        -0.678573
 H         3.416063         2.101465        -0.310585
 H         2.268974         0.048103         0.783108
