19
Iteration:  4422charge 0 multiplicity 1
 O         4.311016         2.919844        -2.532874
 C         3.008343         2.420297        -2.384908
 C         1.999002         2.449292        -3.526750
 C         2.670267         1.083542        -3.038587
 C         1.884446         0.239710        -2.081468
 C         1.441534         1.198350        -1.032328
 C         2.510245         2.337531        -1.003362
 C         1.314425         0.450024         0.259591
 O         0.391214         0.355777         1.035779
 H         4.181258         3.892197        -2.395847
 H         0.951161         2.476307        -3.497198
 H         2.640951         2.742397        -4.415045
 H         3.326938         0.548320        -3.550324
 H         1.026347        -0.123054        -2.668274
 H         2.276246        -0.673444        -1.765069
 H         0.436888         1.548812        -1.125341
 H         2.039207         3.350249        -0.744093
 H         3.352654         2.073405        -0.328745
 H         2.111119        -0.379714         0.471613
