19
Iteration:  3709charge 0 multiplicity 1
 O         4.243622         2.996813        -2.424325
 C         3.016523         2.284795        -2.362278
 C         1.973171         2.440602        -3.427044
 C         2.791714         1.011565        -3.133203
 C         1.890247         0.305824        -2.162674
 C         1.324639         1.144088        -1.059389
 C         2.494745         2.242180        -0.949108
 C         1.336449         0.365516         0.212252
 O         0.473286         0.552311         1.021110
 H         4.305962         3.547903        -3.254385
 H         0.906606         2.447481        -3.155103
 H         2.177267         2.945381        -4.328503
 H         3.501740         0.628235        -3.793885
 H         1.044890        -0.117900        -2.662186
 H         2.476759        -0.590859        -1.951413
 H         0.307620         1.708031        -1.216458
 H         1.958471         3.144002        -0.555356
 H         3.166779         2.139122        -0.155196
 H         2.272914        -0.159465         0.441393
