19
Iteration:  1980charge 0 multiplicity 1
 O         4.368047         2.824051        -2.530085
 C         3.031045         2.412204        -2.351365
 C         2.030614         2.517263        -3.524443
 C         2.650501         1.200785        -3.101007
 C         1.744768         0.344638        -2.321392
 C         1.284232         1.162538        -0.990007
 C         2.358535         2.320522        -0.971741
 C         1.399951         0.426252         0.289808
 O         0.535911         0.263070         1.134238
 H         5.010995         2.727794        -1.784561
 H         0.961681         2.776208        -3.391222
 H         2.564973         3.202350        -4.301108
 H         3.495401         0.836872        -3.606594
 H         0.985610        -0.004931        -2.965145
 H         2.182662        -0.548070        -1.937235
 H         0.198611         1.562203        -1.152575
 H         1.964845         3.318710        -0.698607
 H         3.168914         2.057706        -0.192694
 H         2.522809         0.070531         0.338679
