19
Iteration:  2803
 O         4.351201         2.656006        -2.581910
 C         3.048921         2.379859        -2.321736
 C         2.009797         2.450548        -3.481664
 C         2.600720         1.144805        -3.032722
 C         1.799770         0.334090        -2.038575
 C         1.399460         1.403174        -0.978126
 C         2.405302         2.527850        -0.991304
 C         1.371708         0.653939         0.309203
 O         0.498698        -0.001203         0.788366
 H         4.448874         3.571155        -2.210475
 H         0.915154         2.529402        -3.330487
 H         2.459625         2.679807        -4.482396
 H         3.343839         0.602990        -3.687421
 H         0.800601        -0.158188        -2.454228
 H         2.338749        -0.397600        -1.354748
 H         0.351298         1.694066        -1.005585
 H         2.186934         3.485586        -0.615245
 H         3.081769         2.068916        -0.286230
 H         2.366776         0.707619         0.862388
