19
Iteration:  3333charge 0 multiplicity 1
 O         4.342702         2.977106        -2.623178
 C         3.123245         2.433246        -2.430717
 C         2.027243         2.393523        -3.494861
 C         2.679705         1.130873        -3.154843
 C         1.858694         0.325260        -2.132795
 C         1.407308         1.307242        -0.909600
 C         2.577208         2.312835        -1.020039
 C         1.295739         0.419942         0.462295
 O         0.250021         0.150152         1.017076
 H         4.161761         3.898973        -2.876577
 H         1.007990         2.795044        -3.430941
 H         2.597827         2.668289        -4.474559
 H         3.302400         0.491986        -3.671301
 H         1.001495        -0.152081        -2.614581
 H         2.338510        -0.603595        -1.778215
 H         0.340310         1.628074        -0.989337
 H         2.133426         3.273389        -0.693546
 H         3.298395         1.910731        -0.263729
 H         2.220178         0.181681         0.988447
