19
Iteration:  4010
 O         4.285870         2.975944        -2.697549
 C         3.075024         2.370839        -2.402406
 C         2.022673         2.398557        -3.448164
 C         2.666369         1.091776        -3.043918
 C         1.878414         0.239499        -2.118561
 C         1.449759         1.270984        -0.952995
 C         2.622932         2.297892        -0.985968
 C         1.294163         0.560060         0.420378
 O         0.241872         0.173288         0.900993
 H         4.286021         3.818106        -2.162403
 H         1.056040         2.708190        -3.222001
 H         2.317958         2.833488        -4.398550
 H         3.448023         0.645681        -3.690556
 H         1.022551        -0.333656        -2.419307
 H         2.501772        -0.456048        -1.617725
 H         0.423871         1.721722        -1.142260
 H         2.156069         3.244113        -0.646677
 H         3.503048         2.007067        -0.323776
 H         2.239482         0.666943         1.067450
