19
Iteration:  1091charge 0 multiplicity 1
 O         4.302613         3.028881        -2.470932
 C         3.077706         2.365135        -2.425563
 C         2.000415         2.572574        -3.402008
 C         2.412870         1.166725        -3.145747
 C         1.782277         0.188310        -2.170396
 C         1.593047         1.240442        -0.822357
 C         2.709204         2.296130        -0.974138
 C         1.388973         0.340964         0.361393
 O         0.285308         0.235450         0.849229
 H         4.440173         3.560807        -3.293041
 H         1.065712         3.051526        -3.066075
 H         2.225098         2.865051        -4.516938
 H         3.067835         0.784280        -3.870250
 H         0.762478        -0.230077        -2.547631
 H         2.367770        -0.651669        -2.005104
 H         0.521013         1.604748        -0.991288
 H         2.387280         3.290517        -0.566437
 H         3.543942         1.904010        -0.486359
 H         2.152632        -0.443630         0.574026
