19
Iteration:  2327
 O         4.352668         2.883125        -2.466452
 C         3.013294         2.452385        -2.454690
 C         2.145956         2.462331        -3.655590
 C         2.558485         1.142003        -3.162223
 C         1.807387         0.298984        -2.126076
 C         1.335977         1.165376        -0.926764
 C         2.428604         2.389019        -1.050387
 C         1.390397         0.368024         0.392087
 O         0.416134         0.291788         1.107713
 H         4.520373         3.754147        -2.040994
 H         1.044954         2.644502        -3.685210
 H         2.726425         2.665055        -4.582192
 H         3.285140         0.713727        -3.861566
 H         0.982137        -0.308755        -2.631763
 H         2.486985        -0.415945        -1.838928
 H         0.348302         1.518650        -1.197042
 H         2.029823         3.435054        -0.703260
 H         3.268861         2.136755        -0.274442
 H         2.358580        -0.273326         0.696131
