19
Iteration:  3071charge 0 multiplicity 1
 O         4.334150         3.010028        -2.462505
 C         2.992743         2.446242        -2.362225
 C         2.117663         2.401128        -3.597467
 C         2.684620         1.145456        -3.147535
 C         1.864547         0.219937        -2.248774
 C         1.325413         1.050292        -1.079736
 C         2.348090         2.277362        -0.947839
 C         1.260302         0.264628         0.287124
 O         0.555236         0.566040         1.210963
 H         4.273704         3.946222        -2.259533
 H         1.035297         2.361578        -3.690293
 H         2.620529         2.781818        -4.495433
 H         3.628163         0.736955        -3.706143
 H         1.028213        -0.229509        -2.802626
 H         2.381601        -0.643707        -1.713154
 H         0.320827         1.548443        -1.298324
 H         1.761986         3.146268        -0.512597
 H         3.188638         2.104804        -0.297011
 H         1.931922        -0.613454         0.298505
