19
Iteration:  4535charge 0 multiplicity 1
 O         4.412834         2.825849        -2.629017
 C         3.141321         2.395912        -2.308217
 C         2.006647         2.380212        -3.509379
 C         2.579720         1.089742        -3.017414
 C         1.839645         0.235229        -2.070576
 C         1.367464         1.362074        -0.973024
 C         2.418620         2.493123        -1.026467
 C         1.322237         0.554193         0.297315
 O         0.415716         0.127010         0.950007
 H         4.311953         3.786088        -2.626613
 H         0.966594         2.611747        -3.258885
 H         2.482480         2.716659        -4.368792
 H         3.390782         0.643707        -3.797309
 H         0.974070        -0.259429        -2.478734
 H         2.442675        -0.446339        -1.506706
 H         0.331894         1.639465        -1.320933
 H         1.724342         3.388794        -0.810832
 H         3.158902         2.281457        -0.223119
 H         2.372449         0.263601         0.877413
