19
Iteration:  2504charge 0 multiplicity 1
 O         4.308433         2.980651        -2.368755
 C         3.050490         2.309853        -2.412794
 C         2.056226         2.533512        -3.521083
 C         2.607528         1.055317        -3.142592
 C         1.883939         0.173288        -2.222842
 C         1.375228         1.165067        -1.080181
 C         2.496079         2.218763        -0.983487
 C         1.329354         0.434245         0.259622
 O         0.429351         0.478723         1.139208
 H         4.170796         3.802996        -2.882364
 H         0.965516         2.591345        -3.292465
 H         2.224879         2.937311        -4.467106
 H         3.024263         0.625979        -4.050495
 H         0.912870        -0.381448        -2.544348
 H         2.593260        -0.556152        -1.814963
 H         0.386521         1.581188        -1.216668
 H         2.034734         3.179917        -0.646098
 H         3.471599         2.115140        -0.398699
 H         2.344515         0.082588         0.569743
