19
Iteration:    97charge 0 multiplicity 1
 O         4.194386         3.037273        -2.332335
 C         2.896908         2.383494        -2.331532
 C         2.181360         2.422758        -3.645786
 C         2.741407         1.068668        -3.132801
 C         1.664511         0.201729        -2.366390
 C         1.329215         1.162844        -1.033103
 C         2.309419         2.350965        -0.985498
 C         1.489033         0.401506         0.315374
 O         0.631060         0.392963         1.154722
 H         4.947245         2.480410        -2.469559
 H         1.146612         2.683303        -3.773441
 H         2.889320         2.872440        -4.351302
 H         3.670110         0.706319        -3.511040
 H         0.787405         0.030922        -3.013478
 H         1.930645        -0.828837        -2.105379
 H         0.294920         1.731815        -1.093729
 H         1.799691         3.265995        -0.641471
 H         3.064230         2.276946        -0.206088
 H         2.435491         0.007600         0.507768
