19
Iteration:  1831charge 0 multiplicity 1
 O         4.372847         2.967538        -2.593340
 C         3.111996         2.376096        -2.393281
 C         1.925082         2.708042        -3.361480
 C         2.515954         1.170924        -3.157365
 C         1.825260         0.213820        -2.202197
 C         1.441702         1.131547        -0.976263
 C         2.593317         2.184654        -0.961454
 C         1.354985         0.317297         0.263401
 O         0.369727         0.371614         1.013824
 H         4.710104         3.430678        -1.789068
 H         0.875897         2.917682        -3.085069
 H         2.317769         3.172873        -4.321364
 H         2.979606         0.715331        -3.986963
 H         0.882621        -0.289957        -2.564765
 H         2.523354        -0.578533        -1.807242
 H         0.489784         1.561231        -1.166298
 H         2.162799         3.085708        -0.508317
 H         3.282466         1.630433        -0.199240
 H         2.192540        -0.288472         0.489848
