19
Iteration:  3590
 O         4.291283         2.888387        -2.571116
 C         3.095773         2.324668        -2.417330
 C         2.040683         2.508050        -3.524628
 C         2.636322         1.147384        -3.120353
 C         1.878328         0.257504        -2.062534
 C         1.442497         1.212293        -0.953448
 C         2.493721         2.313433        -1.001821
 C         1.331491         0.481826         0.378684
 O         0.324764         0.262947         0.978570
 H         4.134622         3.829322        -2.554651
 H         1.000093         2.685957        -3.412722
 H         2.511517         3.044344        -4.348516
 H         3.330794         0.663316        -3.744742
 H         1.078160        -0.335486        -2.516446
 H         2.631778        -0.484099        -1.643129
 H         0.441181         1.661119        -1.355171
 H         1.899573         3.216540        -0.657215
 H         3.262252         2.285351        -0.245010
 H         2.341779         0.070594         0.706781
