19
Iteration:  2763
 O         4.422821         2.858465        -2.518285
 C         3.097734         2.354292        -2.437257
 C         2.145266         2.451376        -3.579893
 C         2.551462         1.114989        -3.077704
 C         1.680691         0.300729        -2.085516
 C         1.361077         1.304438        -0.881460
 C         2.444638         2.393058        -1.052286
 C         1.321977         0.633785         0.447288
 O         0.457003        -0.028148         0.923630
 H         4.424827         3.804819        -2.672184
 H         1.167056         2.930125        -3.340530
 H         2.466777         2.803789        -4.631310
 H         3.014211         0.595449        -3.991903
 H         0.762351         0.051899        -2.472862
 H         2.353426        -0.500536        -1.907733
 H         0.368856         1.730102        -1.090641
 H         2.180893         3.419156        -0.680775
 H         3.408023         2.102778        -0.491541
 H         2.063423         1.130675         1.129814
