19
Iteration:  2049
 O         4.302089         2.934273        -2.403567
 C         3.013711         2.376154        -2.376601
 C         2.067758         2.431319        -3.497147
 C         2.630055         1.126756        -3.030402
 C         1.715368         0.339345        -2.241957
 C         1.350496         1.294047        -1.045151
 C         2.512456         2.355187        -1.003854
 C         1.393374         0.435038         0.276837
 O         0.493966         0.195909         1.048921
 H         4.516825         2.734870        -3.332154
 H         1.028998         2.735260        -3.182609
 H         2.484212         3.016755        -4.283767
 H         3.425618         0.540342        -3.592654
 H         0.794128         0.145878        -2.815447
 H         2.083703        -0.650406        -2.069807
 H         0.370824         1.735131        -1.087700
 H         2.117646         3.272299        -0.616604
 H         3.348078         2.012539        -0.407270
 H         2.411785         0.087214         0.424841
