19
Iteration:  4619charge 0 multiplicity 1
 O         4.305433         2.971889        -2.584929
 C         3.069311         2.353946        -2.459483
 C         2.057832         2.445179        -3.630594
 C         2.657334         1.062663        -3.064135
 C         1.887834         0.267426        -2.087109
 C         1.411009         1.258332        -0.856251
 C         2.621564         2.335788        -1.043422
 C         1.296354         0.570615         0.477121
 O         0.233359         0.165726         0.984626
 H         4.241780         3.860449        -2.987123
 H         0.991729         2.770509        -3.358791
 H         2.330501         2.734608        -4.623813
 H         3.427376         0.641528        -3.787222
 H         0.910795        -0.180160        -2.457634
 H         2.534462        -0.529273        -1.540920
 H         0.409331         1.586341        -1.191045
 H         2.180755         3.208642        -0.508416
 H         3.423890         2.027140        -0.389498
 H         2.425291         0.153538         0.749228
