19
Iteration:  2543charge 0 multiplicity 1
 O         4.254035         2.932561        -2.626917
 C         2.994920         2.401384        -2.418089
 C         2.071838         2.565395        -3.633876
 C         2.781157         1.158569        -3.089348
 C         1.804166         0.248856        -2.217477
 C         1.480174         1.087619        -0.956093
 C         2.510640         2.221744        -0.910295
 C         1.304639         0.295037         0.395347
 O         0.311800         0.475353         1.138591
 H         4.236399         3.875854        -2.431692
 H         0.960592         2.555973        -3.618556
 H         2.688199         3.064524        -4.459335
 H         3.456423         0.639024        -3.713698
 H         1.058844        -0.181975        -2.786204
 H         2.435560        -0.622584        -1.897249
 H         0.539815         1.612335        -1.254355
 H         2.143003         3.099941        -0.334664
 H         3.260746         1.730049        -0.330150
 H         2.306994        -0.032716         0.930805
