19
Iteration:  2579charge 0 multiplicity 1
 O         4.358603         2.982687        -2.557527
 C         3.099360         2.354159        -2.387661
 C         1.912943         2.421964        -3.403619
 C         2.675616         1.052517        -3.064733
 C         1.830815         0.179314        -2.127688
 C         1.425541         1.270776        -1.048144
 C         2.542646         2.325060        -0.904803
 C         1.327682         0.382656         0.177492
 O         0.363673         0.416298         0.987071
 H         4.272524         3.940937        -2.426039
 H         0.879485         2.685408        -3.027695
 H         2.032783         2.769670        -4.397461
 H         3.244883         0.563912        -3.887413
 H         0.935531        -0.353103        -2.633490
 H         2.452156        -0.611817        -1.522830
 H         0.424504         1.716615        -1.044531
 H         2.340127         3.378995        -0.591553
 H         3.380351         2.005109        -0.363332
 H         2.225002        -0.306997         0.460740
