19
Iteration:  4695charge 0 multiplicity 1
 O         4.350993         2.983926        -2.585777
 C         3.024640         2.426647        -2.384824
 C         1.974468         2.446938        -3.674444
 C         2.575837         1.110724        -3.117414
 C         2.006768         0.164113        -2.130537
 C         1.506769         1.137882        -0.912242
 C         2.562035         2.272140        -0.941202
 C         1.271000         0.449219         0.405639
 O         0.228874         0.414278         1.053855
 H         4.322991         3.908702        -2.246244
 H         0.906164         2.497800        -3.304215
 H         2.342757         2.781327        -4.705248
 H         3.285129         0.750015        -4.025797
 H         1.169816        -0.486849        -2.534571
 H         2.909610        -0.358858        -1.672599
 H         0.517708         1.521340        -1.252227
 H         2.148305         3.259258        -0.686174
 H         3.431630         1.901756        -0.366810
 H         2.139774        -0.226216         0.699367
