19
Iteration:  4062
 O         4.349979         2.817005        -2.601694
 C         2.957390         2.459213        -2.431387
 C         1.998019         2.440363        -3.608757
 C         2.677627         1.134591        -3.022884
 C         1.907085         0.278833        -2.002026
 C         1.466263         1.253083        -0.920695
 C         2.510481         2.385852        -0.959936
 C         1.375627         0.544735         0.394278
 O         0.278569         0.160857         0.857528
 H         4.308490         3.827235        -2.575441
 H         0.982757         2.508219        -3.362836
 H         2.294226         2.917098        -4.593424
 H         3.384666         0.689898        -3.645290
 H         0.927619        -0.173410        -2.203777
 H         2.525838        -0.517719        -1.461018
 H         0.428106         1.423628        -1.252681
 H         2.099880         3.348891        -0.505370
 H         3.431787         2.220889        -0.318050
 H         2.363637         0.148755         0.766096
