19
Iteration:  1824
 O         4.370766         2.916226        -2.609271
 C         3.073534         2.430679        -2.318762
 C         1.980875         2.688707        -3.397941
 C         2.489604         1.240744        -3.199984
 C         1.816764         0.244838        -2.212327
 C         1.446403         1.054050        -0.963381
 C         2.623133         2.142671        -0.969524
 C         1.306067         0.386451         0.309470
 O         0.361706         0.338156         1.027732
 H         4.560486         3.561768        -1.916411
 H         0.953015         2.768386        -3.214419
 H         2.233243         3.165321        -4.320152
 H         3.151919         0.692279        -3.993254
 H         0.962347        -0.346476        -2.526626
 H         2.685499        -0.347964        -1.989408
 H         0.470981         1.598294        -1.112691
 H         2.225655         3.075476        -0.480221
 H         3.486892         1.934649        -0.404511
 H         2.227586        -0.421078         0.620102
