19
Iteration:  1228charge 0 multiplicity 1
 O         4.407011         2.929110        -2.586726
 C         3.136587         2.419174        -2.336038
 C         2.034682         2.589381        -3.434011
 C         2.577584         1.210801        -3.144338
 C         1.705890         0.270725        -2.188447
 C         1.302157         1.182272        -1.030241
 C         2.496498         2.224952        -0.926092
 C         1.310505         0.427512         0.297459
 O         0.471863         0.178166         1.079651
 H         4.432490         3.855891        -2.889815
 H         1.077229         2.835274        -3.134648
 H         2.463792         3.113936        -4.307184
 H         3.334572         0.933755        -3.881336
 H         0.917286        -0.303347        -2.715930
 H         2.364169        -0.607227        -1.865613
 H         0.438062         1.747494        -1.186522
 H         1.967804         3.069554        -0.543701
 H         3.319688         1.800618        -0.313579
 H         2.373854        -0.058894         0.429061
