19
Iteration:  4698
 O         4.344642         2.983873        -2.581574
 C         3.014262         2.408307        -2.401039
 C         1.953554         2.468588        -3.688682
 C         2.621201         1.111521        -3.125558
 C         2.007081         0.181383        -2.131306
 C         1.486285         1.144386        -0.911411
 C         2.573190         2.266804        -0.948183
 C         1.280482         0.413294         0.406794
 O         0.226407         0.427785         1.063740
 H         4.320264         3.923835        -2.275937
 H         1.001786         2.554685        -3.366253
 H         2.357760         2.719015        -4.654970
 H         3.251608         0.725754        -3.918675
 H         1.178429        -0.472437        -2.447479
 H         2.976711        -0.414954        -1.739783
 H         0.525665         1.561846        -1.217085
 H         2.072848         3.233353        -0.567278
 H         3.352976         1.797407        -0.373423
 H         2.102571        -0.134341         0.771351
