19
Iteration:  1543
 O         4.343095         2.887201        -2.381070
 C         2.976570         2.367777        -2.413970
 C         1.851070         2.637781        -3.425640
 C         2.522804         1.122086        -3.099685
 C         1.641045         0.398976        -2.113343
 C         1.502544         1.295159        -0.973823
 C         2.679396         2.216109        -0.950742
 C         1.464851         0.413032         0.196443
 O         0.444045         0.158551         0.876514
 H         4.670451         2.796876        -3.261363
 H         0.870092         2.937108        -3.120396
 H         2.206512         3.122697        -4.312934
 H         3.225296         0.626044        -3.772228
 H         0.819941         0.039706        -2.760232
 H         2.309100        -0.457563        -1.644123
 H         0.614702         1.907526        -1.130891
 H         2.469243         3.042953        -0.287452
 H         3.520862         1.764083        -0.383659
 H         2.552611         0.081580         0.451045
