19
Iteration:  1403
 O         4.327277         3.040929        -2.614769
 C         3.060314         2.419562        -2.397335
 C         2.052990         2.648099        -3.424081
 C         2.521733         1.184535        -3.146294
 C         1.708831         0.207040        -2.341565
 C         1.422803         1.098496        -0.934678
 C         2.640793         2.172105        -0.936791
 C         1.351788         0.335009         0.385540
 O         0.397210         0.312979         1.064105
 H         4.583714         3.351597        -1.757337
 H         1.102455         3.179370        -3.029724
 H         2.364856         3.062052        -4.401846
 H         3.024492         0.582731        -3.885239
 H         0.888242        -0.002771        -3.061819
 H         2.286669        -0.611842        -2.132754
 H         0.439724         1.511176        -0.903237
 H         2.345805         2.974041        -0.281155
 H         3.589252         1.818198        -0.542102
 H         2.186599        -0.294516         0.676989
