19
Iteration:  4696charge 0 multiplicity 1
 O         4.349609         2.983856        -2.584669
 C         3.021004         2.421315        -2.387946
 C         1.966027         2.455242        -3.681299
 C         2.588762         1.109426        -3.117779
 C         2.006467         0.170188        -2.132411
 C         1.500503         1.140118        -0.910497
 C         2.567064         2.269778        -0.942993
 C         1.275272         0.437312         0.406077
 O         0.227424         0.418557         1.057577
 H         4.323346         3.922507        -2.252430
 H         0.948999         2.508435        -3.320368
 H         2.353171         2.761518        -4.700239
 H         3.282350         0.740916        -4.009997
 H         1.164041        -0.484285        -2.509835
 H         2.950332        -0.379729        -1.686661
 H         0.520032         1.534387        -1.242829
 H         2.116460         3.259550        -0.652922
 H         3.398626         1.860933        -0.373477
 H         2.118797        -0.191687         0.718465
