19
Iteration:   961charge 0 multiplicity 1
 O         4.340455         2.747013        -2.591279
 C         2.968125         2.432071        -2.327767
 C         2.045153         2.588258        -3.478418
 C         2.608884         1.209013        -3.122482
 C         1.735192         0.344605        -2.164200
 C         1.333110         1.360206        -0.947302
 C         2.592172         2.353911        -0.870798
 C         1.399696         0.434777         0.324440
 O         0.450493         0.033291         0.905113
 H         4.347700         3.596863        -3.039410
 H         0.944913         2.747716        -3.288064
 H         2.522194         3.072832        -4.394682
 H         3.259982         0.689373        -3.756468
 H         0.711307        -0.078006        -2.528535
 H         2.396606        -0.366236        -1.659978
 H         0.276221         1.839451        -0.942716
 H         2.414066         3.369929        -0.372695
 H         3.370807         1.988430        -0.166168
 H         2.429653        -0.026025         0.494755
