19
Iteration:  3389charge 0 multiplicity 1
 O         4.337117         2.821431        -2.625817
 C         3.046670         2.371290        -2.401434
 C         1.996055         2.407134        -3.519683
 C         2.696293         1.084084        -3.022112
 C         1.801547         0.354586        -2.003687
 C         1.364289         1.273858        -0.905662
 C         2.498167         2.458960        -0.906536
 C         1.386478         0.550114         0.305483
 O         0.380476         0.130650         0.794275
 H         4.363176         3.773350        -2.661367
 H         0.948650         2.571514        -3.185586
 H         2.224326         2.964341        -4.500099
 H         3.406289         0.564334        -3.583710
 H         0.956339        -0.155981        -2.468170
 H         2.545207        -0.382779        -1.601082
 H         0.341451         1.778337        -0.989932
 H         2.064955         3.397197        -0.436845
 H         3.324178         2.078106        -0.280004
 H         2.386233         0.174327         0.776838
