19
Iteration:   190charge 0 multiplicity 1
 O         4.295436         2.799940        -2.207783
 C         2.900698         2.454338        -2.355835
 C         2.173738         2.520249        -3.624589
 C         2.593614         1.204118        -3.191144
 C         1.758839         0.191862        -2.348601
 C         1.390630         0.954613        -1.099826
 C         2.184835         2.387589        -1.059065
 C         1.512327         0.360763         0.337817
 O         0.641484         0.516539         1.164041
 H         4.520001         3.581580        -2.795155
 H         1.022612         2.799918        -3.417209
 H         2.564997         3.143245        -4.490900
 H         3.533116         0.798894        -3.530019
 H         0.853980        -0.020353        -2.923058
 H         2.202990        -0.783427        -2.202902
 H         0.366065         1.189612        -1.166410
 H         1.647165         3.185370        -0.523190
 H         3.066640         2.323143        -0.423578
 H         2.576550        -0.157312         0.614286
