19
Iteration:   348charge 0 multiplicity 1
 O         4.299976         2.900596        -2.582430
 C         2.971994         2.425116        -2.382877
 C         1.893263         2.547183        -3.415336
 C         2.497600         1.190799        -3.128069
 C         1.963300         0.265278        -2.117989
 C         1.563848         1.124999        -1.053387
 C         2.627086         2.213296        -0.890346
 C         1.383359         0.489178         0.367475
 O         0.298011         0.305335         0.862989
 H         4.425210         3.648502        -1.930557
 H         0.938887         2.718530        -3.122160
 H         1.949310         2.843961        -4.391652
 H         3.170782         0.682890        -3.851327
 H         1.168820        -0.524103        -2.314066
 H         2.859414        -0.319946        -1.782476
 H         0.583622         1.645225        -1.314546
 H         2.217017         3.170834        -0.541312
 H         3.517283         1.872781        -0.316684
 H         2.306911        -0.095784         0.844180
