19
Iteration:   798charge 0 multiplicity 1
 O         4.280144         2.892382        -2.467129
 C         2.983009         2.530439        -2.372216
 C         2.015585         2.542995        -3.518176
 C         2.512209         1.169606        -3.131958
 C         1.746164         0.272224        -2.172133
 C         1.428003         1.184111        -0.959497
 C         2.657238         2.163027        -0.971722
 C         1.428519         0.369895         0.270853
 O         0.411653         0.304663         0.983166
 H         4.277642         3.890979        -2.489209
 H         0.996205         3.045396        -3.366970
 H         2.582318         2.938428        -4.398747
 H         3.381899         0.739123        -3.651869
 H         0.780630        -0.102428        -2.591582
 H         2.385489        -0.575875        -1.844111
 H         0.360236         1.692529        -0.989748
 H         2.539060         3.015684        -0.216871
 H         3.648279         1.781337        -0.653140
 H         2.242235        -0.360569         0.535970
