19
Iteration:   141
 O         4.294332         3.071882        -2.438499
 C         2.994878         2.410868        -2.347231
 C         2.255962         2.421906        -3.576883
 C         2.702457         1.025529        -3.031111
 C         1.604488         0.163541        -2.303336
 C         1.213712         1.234090        -1.113704
 C         2.311936         2.416467        -0.993786
 C         1.323268         0.337365         0.161701
 O         0.769429         0.351492         1.239822
 H         4.353108         3.468787        -1.573844
 H         1.247506         2.642680        -3.609406
 H         2.691414         2.843345        -4.477802
 H         3.470707         0.469211        -3.578077
 H         0.745079        -0.257444        -2.864605
 H         2.087990        -0.732083        -1.856172
 H         0.095630         1.583243        -1.177499
 H         1.784055         3.352862        -0.756708
 H         2.995319         2.289324        -0.122643
 H         2.156610        -0.536235        -0.013272
