19
Iteration:  1949
 O         4.359045         2.831378        -2.440545
 C         3.059927         2.351148        -2.350368
 C         2.021261         2.555210        -3.391138
 C         2.585087         1.123632        -3.114789
 C         1.702259         0.209064        -2.208437
 C         1.313096         1.196503        -1.045535
 C         2.416572         2.330051        -0.939357
 C         1.426088         0.440055         0.135120
 O         0.583295         0.353776         1.018626
 H         4.418656         3.771573        -2.184986
 H         0.986469         2.932152        -3.160591
 H         2.593977         3.206388        -4.210840
 H         3.338711         0.790912        -3.800002
 H         0.852348        -0.169808        -2.782862
 H         2.251827        -0.697141        -1.851163
 H         0.246157         1.575635        -1.118991
 H         1.950692         3.268027        -0.795545
 H         3.146038         2.071594        -0.264750
 H         2.368699        -0.178594         0.229488
