19
Iteration:  2126
 O         4.317756         2.867937        -2.608837
 C         3.038981         2.445345        -2.407285
 C         1.988620         2.486447        -3.555766
 C         2.543133         1.240982        -3.196493
 C         1.925227         0.335721        -2.097183
 C         1.506421         1.204772        -0.871637
 C         2.596175         2.367260        -1.004716
 C         1.305422         0.390428         0.411632
 O         0.248490         0.186632         0.950170
 H         4.677450         3.075903        -1.746599
 H         0.901335         2.581564        -3.366262
 H         2.310318         2.830622        -4.509674
 H         3.279293         0.668350        -3.787419
 H         0.989174        -0.235852        -2.202819
 H         2.789465        -0.286821        -1.886360
 H         0.502080         1.599761        -0.899658
 H         2.291410         3.270297        -0.475305
 H         3.524101         1.989616        -0.433823
 H         2.334414        -0.011145         0.825190
