19
Iteration:   502
 O         4.451131         2.771427        -2.658634
 C         3.106640         2.387292        -2.414517
 C         2.071510         2.599860        -3.562165
 C         2.501877         1.173909        -3.108076
 C         1.800236         0.409053        -2.027328
 C         1.298499         1.364628        -0.833943
 C         2.441183         2.405586        -0.976853
 C         1.291528         0.492004         0.346068
 O         0.469379        -0.138245         0.967585
 H         4.486986         3.708920        -2.920807
 H         1.077435         3.073525        -3.280886
 H         2.483796         2.934058        -4.536594
 H         3.293961         0.593334        -3.590372
 H         0.904332        -0.119741        -2.378656
 H         2.442785        -0.318544        -1.509860
 H         0.270501         1.746319        -1.092841
 H         2.011090         3.433261        -0.833156
 H         3.295537         2.294069        -0.230739
 H         2.386417         0.519758         0.681708
