19
Iteration:  4731charge 0 multiplicity 1
 O         4.252263         2.994023        -2.587451
 C         3.003120         2.380788        -2.348492
 C         2.038832         2.415581        -3.513700
 C         2.721395         1.123976        -3.081771
 C         1.929628         0.127432        -2.203677
 C         1.428936         1.152283        -1.024628
 C         2.526499         2.220767        -0.912672
 C         1.292370         0.470377         0.321352
 O         0.335725         0.506911         1.048567
 H         4.119348         3.974055        -2.702864
 H         1.013123         2.531173        -3.453448
 H         2.349053         2.845963        -4.408642
 H         3.432831         0.658905        -3.638953
 H         1.085285        -0.493645        -2.514973
 H         2.754107        -0.688595        -2.014267
 H         0.469380         1.628249        -1.229205
 H         2.099690         3.069085        -0.306598
 H         3.293743         1.906525        -0.231599
 H         2.198864        -0.126348         0.618599
