19
Iteration:  4584
 O         4.347704         2.936609        -2.601681
 C         3.001528         2.407371        -2.393957
 C         2.093002         2.358772        -3.692291
 C         2.572899         1.061590        -3.041512
 C         1.814614         0.273275        -2.048198
 C         1.475262         1.281891        -0.881105
 C         2.549426         2.376693        -0.885354
 C         1.325121         0.600450         0.370826
 O         0.331684         0.140114         0.914582
 H         4.139977         3.894682        -2.676520
 H         1.040576         2.795492        -3.596270
 H         2.633524         2.564209        -4.640437
 H         3.256993         0.585057        -3.590979
 H         0.850726        -0.186956        -2.410841
 H         2.376522        -0.605177        -1.652293
 H         0.484191         1.637387        -1.158520
 H         2.134039         3.349025        -0.736891
 H         3.422257         2.247171        -0.270412
 H         2.323798         0.171413         0.916028
