19
Iteration:  2510charge 0 multiplicity 1
 O         4.330881         3.008782        -2.403033
 C         3.064635         2.343482        -2.410888
 C         2.040333         2.508888        -3.537776
 C         2.580050         1.069869        -3.160222
 C         1.833481         0.177924        -2.204244
 C         1.432051         1.132246        -1.072554
 C         2.497812         2.205869        -1.007361
 C         1.295422         0.415683         0.334257
 O         0.422546         0.472000         1.144682
 H         4.142725         3.876061        -2.834038
 H         0.993145         2.844265        -3.481919
 H         2.577560         2.977444        -4.471594
 H         3.103094         0.641362        -4.007484
 H         1.015119        -0.373592        -2.589828
 H         2.643852        -0.537790        -1.816424
 H         0.447554         1.557423        -1.410058
 H         1.995771         3.071123        -0.556081
 H         3.269179         1.925392        -0.297720
 H         2.348760         0.087335         0.647815
