19
Iteration:  3355charge 0 multiplicity 1
 O         4.376561         2.958162        -2.670124
 C         3.020401         2.442457        -2.461355
 C         2.130179         2.489350        -3.696265
 C         2.645171         1.095013        -3.131174
 C         1.773711         0.287256        -2.011940
 C         1.485640         1.201832        -0.800512
 C         2.615626         2.485525        -0.959944
 C         1.256050         0.407750         0.459470
 O         0.214844         0.074518         0.997293
 H         4.155069         3.907669        -2.782464
 H         1.085337         2.768157        -3.509856
 H         2.648776         2.957151        -4.625601
 H         3.311914         0.444272        -3.600975
 H         0.938347        -0.253536        -2.451778
 H         2.372527        -0.533447        -1.566402
 H         0.442817         1.586888        -0.930007
 H         2.160398         3.398090        -0.590501
 H         3.563734         2.317109        -0.426553
 H         2.249105        -0.026498         0.799539
