19
Iteration:  4306
 O         4.280158         2.983694        -2.633864
 C         2.983649         2.423695        -2.376834
 C         2.044538         2.504973        -3.615488
 C         2.708027         1.135280        -3.151600
 C         1.984171         0.199277        -2.128499
 C         1.456113         1.073150        -0.958897
 C         2.477103         2.213690        -0.958056
 C         1.227278         0.308924         0.357576
 O         0.318148         0.513621         1.139436
 H         4.431461         3.911622        -2.408325
 H         1.084290         2.703831        -3.543497
 H         2.669281         3.074904        -4.311092
 H         3.502773         0.895359        -3.720304
 H         1.187210        -0.344168        -2.602645
 H         2.548891        -0.648742        -1.683346
 H         0.510791         1.591012        -1.141822
 H         2.098157         3.102377        -0.500851
 H         3.321235         1.854418        -0.383083
 H         2.011321        -0.393931         0.520138
