19
Iteration:   902
 O         4.366870         2.901260        -2.477361
 C         3.083012         2.346593        -2.467006
 C         2.047971         2.564071        -3.561952
 C         2.470580         1.187910        -3.130082
 C         1.685931         0.370829        -2.119488
 C         1.477766         1.351872        -0.853488
 C         2.553498         2.275378        -1.037235
 C         1.374229         0.396285         0.320183
 O         0.443323         0.054104         0.964688
 H         4.269207         3.505118        -1.739488
 H         1.234515         3.074377        -3.187561
 H         2.335838         2.899749        -4.540882
 H         3.113554         0.641119        -3.919195
 H         0.672109         0.125175        -2.365067
 H         2.098242        -0.576383        -1.840490
 H         0.519196         1.711711        -0.909715
 H         2.154380         3.220963        -0.937815
 H         3.393059         2.108377        -0.446689
 H         2.450904         0.084892         0.607479
