19
Iteration:  3413
 O         4.377917         2.836705        -2.529489
 C         3.085360         2.317330        -2.354958
 C         1.966413         2.400651        -3.365564
 C         2.611423         1.085211        -3.066071
 C         1.835118         0.247084        -2.124498
 C         1.394931         1.344837        -1.017949
 C         2.498335         2.464728        -1.013958
 C         1.291427         0.712945         0.329452
 O         0.447982         0.049486         0.872223
 H         4.232012         3.778860        -2.673517
 H         0.919931         2.651659        -3.130025
 H         2.229881         2.681538        -4.345422
 H         3.171310         0.610757        -3.914121
 H         0.989886        -0.182140        -2.648082
 H         2.506415        -0.480784        -1.594485
 H         0.414124         1.848443        -1.303550
 H         2.051752         3.516754        -0.686161
 H         3.276350         2.116138        -0.275796
 H         2.318958         0.400374         0.780409
