19
Iteration:  2887
 O         4.312779         2.966049        -2.552345
 C         3.040995         2.414299        -2.314070
 C         2.003969         2.337493        -3.497991
 C         2.655121         1.074645        -2.964128
 C         1.752288         0.283461        -2.100679
 C         1.356853         1.361306        -0.991751
 C         2.628934         2.273146        -0.942757
 C         1.383609         0.637507         0.324416
 O         0.379359         0.114231         0.826128
 H         4.250781         3.336929        -3.441723
 H         1.034290         2.730091        -3.315733
 H         2.394986         2.875664        -4.356416
 H         3.239811         0.558230        -3.728030
 H         0.995103        -0.157865        -2.730951
 H         2.146839        -0.562326        -1.595976
 H         0.361929         1.907831        -1.087025
 H         2.293772         3.235083        -0.386527
 H         3.460907         1.770306        -0.356443
 H         2.401948         0.441942         0.794122
