19
Iteration:  4299charge 0 multiplicity 1
 O         4.261247         2.993998        -2.651496
 C         3.010259         2.435338        -2.376036
 C         2.127087         2.484483        -3.603745
 C         2.690619         1.188150        -3.139564
 C         1.933273         0.219655        -2.153302
 C         1.396763         1.047185        -0.994622
 C         2.525929         2.203115        -0.945285
 C         1.228949         0.287242         0.410183
 O         0.313230         0.505254         1.158882
 H         4.346900         3.953413        -2.389470
 H         0.985036         2.809403        -3.557158
 H         2.605079         2.854522        -4.518282
 H         3.508624         0.659126        -3.828438
 H         1.143633        -0.368658        -2.665920
 H         2.731915        -0.401258        -1.699170
 H         0.472497         1.449473        -1.396153
 H         2.061915         3.118875        -0.528881
 H         3.441503         2.065841        -0.265589
 H         2.065250        -0.498427         0.694789
