19
Iteration:  2784
 O         4.402726         2.739550        -2.509861
 C         3.020476         2.378810        -2.394234
 C         2.020371         2.466058        -3.484072
 C         2.582565         1.043747        -3.045555
 C         1.730729         0.306029        -2.085717
 C         1.273404         1.410608        -1.052960
 C         2.518842         2.379026        -0.964427
 C         1.334693         0.738896         0.391116
 O         0.550807        -0.012264         0.849279
 H         4.436517         3.734459        -2.368057
 H         0.943864         2.741741        -3.271584
 H         2.319171         2.995407        -4.507567
 H         3.447320         0.570025        -3.672574
 H         0.919177        -0.101225        -2.613027
 H         2.438791        -0.359749        -1.603591
 H         0.316802         1.804532        -1.388779
 H         2.056106         3.337071        -0.769859
 H         3.245968         2.147090        -0.133421
 H         2.367097         0.802574         0.856116
