19
Iteration:  4215charge 0 multiplicity 1
 O         4.315490         2.901631        -2.445761
 C         3.001308         2.376690        -2.429197
 C         2.105713         2.490669        -3.535924
 C         2.681861         1.127120        -3.080697
 C         1.814636         0.239586        -2.150263
 C         1.396482         1.193366        -1.006055
 C         2.380627         2.334553        -1.040970
 C         1.369564         0.443195         0.320887
 O         0.421279         0.333851         1.094097
 H         4.255987         3.638918        -3.056568
 H         1.020796         2.752064        -3.256029
 H         2.472568         2.828146        -4.469853
 H         3.449311         0.453726        -3.630023
 H         1.090369        -0.398730        -2.715988
 H         2.447600        -0.606066        -1.802807
 H         0.346964         1.453432        -1.373921
 H         1.916174         3.332188        -0.802975
 H         3.289272         2.229095        -0.531974
 H         2.435776         0.094847         0.676644
