19
Iteration:  1771charge 0 multiplicity 1
 O         4.360039         2.987415        -2.511632
 C         3.118851         2.421606        -2.332646
 C         1.972045         2.565862        -3.337729
 C         2.455548         1.156825        -3.174602
 C         1.721576         0.291674        -2.223158
 C         1.492312         1.213456        -1.031412
 C         2.634283         2.203223        -0.909062
 C         1.379711         0.336642         0.273550
 O         0.345863         0.264461         0.955400
 H         4.638374         3.013082        -3.427684
 H         1.137771         3.078728        -2.920224
 H         2.163654         3.087130        -4.270335
 H         3.073602         0.569110        -3.989511
 H         0.849256        -0.262052        -2.518826
 H         2.465991        -0.493904        -1.912990
 H         0.466905         1.750570        -1.023388
 H         2.322125         3.133385        -0.372625
 H         3.478263         1.828222        -0.315113
 H         2.331262         0.002493         0.804146
