19
Iteration:  3472
 O         4.349038         2.801033        -2.577439
 C         2.999167         2.428982        -2.411087
 C         2.086381         2.454785        -3.695455
 C         2.631611         1.149933        -3.098691
 C         1.806485         0.340034        -2.038230
 C         1.496323         1.311278        -0.892942
 C         2.479296         2.462564        -0.967119
 C         1.280595         0.489205         0.383646
 O         0.337727         0.014832         0.981177
 H         4.432555         3.809744        -2.617554
 H         1.010446         2.558534        -3.727000
 H         2.604580         2.713694        -4.666696
 H         3.512753         0.798395        -3.560396
 H         0.910647        -0.145799        -2.504366
 H         2.311450        -0.515022        -1.651713
 H         0.641503         1.880044        -0.865233
 H         1.975164         3.329039        -0.522202
 H         3.395451         2.295056        -0.294862
 H         2.370501         0.571666         0.918004
