19
Iteration:  3021charge 0 multiplicity 1
 O         4.215759         3.129501        -2.301525
 C         3.079770         2.319318        -2.380385
 C         2.028567         2.371698        -3.569802
 C         2.660638         1.082240        -3.172001
 C         1.832900         0.150443        -2.330263
 C         1.407085         1.021591        -1.048689
 C         2.518737         2.142801        -0.920181
 C         1.372819         0.456663         0.278466
 O         0.430037         0.611436         1.078580
 H         4.145584         3.815046        -3.035086
 H         1.044192         2.810724        -3.148570
 H         2.385406         3.090164        -4.330788
 H         3.266140         0.667111        -3.946599
 H         0.839218        -0.259264        -2.650861
 H         2.490642        -0.655295        -2.023686
 H         0.415083         1.473997        -1.249114
 H         2.134996         3.052229        -0.377522
 H         3.375043         1.766911        -0.185762
 H         2.281294        -0.137575         0.570385
