19
Iteration:  1190
 O         4.304883         2.822842        -2.507642
 C         2.951224         2.487845        -2.336640
 C         1.967034         2.554964        -3.494071
 C         2.512091         1.217387        -3.233542
 C         1.788760         0.262780        -2.207412
 C         1.592162         1.188329        -0.929437
 C         2.643991         2.309395        -0.914926
 C         1.368801         0.341862         0.328185
 O         0.386515         0.254444         0.949805
 H         4.406775         3.356002        -1.731684
 H         0.852927         2.880596        -3.401577
 H         2.424967         2.995821        -4.401201
 H         3.362385         0.830589        -3.822932
 H         0.711125        -0.034541        -2.501683
 H         2.394773        -0.605490        -1.964522
 H         0.530667         1.666456        -1.133044
 H         2.017529         3.246037        -0.648065
 H         3.498685         2.326151        -0.242896
 H         2.364916        -0.248273         0.555530
