19
Iteration:   102charge 0 multiplicity 1
 O         4.184091         3.048768        -2.338305
 C         2.909379         2.416896        -2.349193
 C         2.211651         2.393468        -3.662446
 C         2.756142         1.033568        -3.129080
 C         1.650923         0.241214        -2.358311
 C         1.248510         1.215620        -1.048116
 C         2.305100         2.333542        -0.938400
 C         1.486118         0.394977         0.279579
 O         0.656313         0.391708         1.152454
 H         4.921803         2.367830        -2.289032
 H         1.078501         2.339127        -3.575252
 H         2.745499         3.025711        -4.386575
 H         3.753934         0.621960        -3.480389
 H         0.844883         0.016538        -3.067957
 H         1.964506        -0.733541        -1.932356
 H         0.342702         1.704059        -1.042040
 H         1.864407         3.293557        -0.636031
 H         3.120169         2.155360        -0.195790
 H         2.616490        -0.170929         0.391070
