19
Iteration:  4397
 O         4.318285         2.913800        -2.519923
 C         3.039839         2.465890        -2.390074
 C         2.056863         2.454285        -3.697639
 C         2.647125         1.203578        -3.238566
 C         1.917033         0.248920        -2.181912
 C         1.433149         1.119290        -0.984166
 C         2.482558         2.263200        -0.887441
 C         1.315757         0.405768         0.438044
 O         0.310287         0.422301         1.096481
 H         4.096860         3.884286        -2.583675
 H         0.924398         2.426953        -3.352888
 H         2.500498         2.801938        -4.625805
 H         3.546622         0.672756        -3.845583
 H         1.103907        -0.454201        -2.537053
 H         2.613439        -0.581949        -1.856110
 H         0.373768         1.326659        -1.023937
 H         2.108111         3.123517        -0.348411
 H         3.337013         1.799096        -0.324101
 H         2.143999        -0.291327         0.906203
