19
Iteration:  3112charge 0 multiplicity 1
 O         4.327916         2.888365        -2.381113
 C         2.999386         2.422245        -2.319507
 C         2.000530         2.411676        -3.525926
 C         2.724736         1.094950        -3.138244
 C         1.893890         0.189271        -2.179494
 C         1.328346         1.125333        -1.188511
 C         2.283751         2.383082        -1.007047
 C         1.284707         0.313497         0.153283
 O         0.650183         0.574876         1.189279
 H         4.322664         3.776816        -1.985520
 H         0.963730         2.561290        -3.405229
 H         2.325007         2.896182        -4.442396
 H         3.489292         0.737979        -3.923006
 H         1.112050        -0.480617        -2.581477
 H         2.688444        -0.388996        -1.679215
 H         0.337312         1.360302        -1.424854
 H         1.704869         3.279716        -0.795746
 H         2.919496         2.280929        -0.009210
 H         1.829670        -0.702044         0.121057
