19
Iteration:  3486charge 0 multiplicity 1
 O         4.400113         2.846999        -2.595390
 C         3.009788         2.486360        -2.404658
 C         2.060024         2.367615        -3.573639
 C         2.652961         1.109260        -2.972066
 C         1.763277         0.316901        -2.062548
 C         1.349257         1.335782        -0.921335
 C         2.491200         2.447077        -0.987231
 C         1.382563         0.532752         0.376899
 O         0.376222         0.056507         0.890170
 H         4.444825         3.794421        -2.539105
 H         0.921193         2.597542        -3.390947
 H         2.466736         2.764881        -4.539542
 H         3.318182         0.505245        -3.570963
 H         0.809033        -0.068861        -2.499110
 H         2.423002        -0.472636        -1.662764
 H         0.332295         1.657519        -1.263285
 H         2.164397         3.412122        -0.732762
 H         3.315815         2.177749        -0.334880
 H         2.391325         0.025216         0.681970
