19
Iteration:  1820charge 0 multiplicity 1
 O         4.365931         2.883431        -2.613474
 C         3.027299         2.442722        -2.324969
 C         2.019657         2.650595        -3.410288
 C         2.488362         1.287901        -3.227226
 C         1.821801         0.273533        -2.215697
 C         1.455880         1.046092        -0.983499
 C         2.623225         2.132342        -0.940284
 C         1.309395         0.382556         0.346996
 O         0.340005         0.325321         1.045504
 H         4.486900         3.661156        -1.997776
 H         0.939936         2.768184        -3.190656
 H         2.268195         3.190991        -4.373237
 H         3.153599         0.841879        -3.897137
 H         1.008076        -0.415112        -2.593983
 H         2.738167        -0.338620        -2.068667
 H         0.549615         1.591564        -1.084844
 H         2.272999         3.057461        -0.453388
 H         3.681305         2.016744        -0.464873
 H         2.169950        -0.298192         0.601590
