19
Iteration:  1641charge 0 multiplicity 1
 O         4.403798         2.736527        -2.517913
 C         2.979224         2.370161        -2.398012
 C         1.929010         2.627945        -3.394563
 C         2.452416         1.146725        -3.078731
 C         1.694154         0.322672        -2.130049
 C         1.433589         1.408961        -0.921947
 C         2.530761         2.364229        -0.980537
 C         1.492744         0.541947         0.316877
 O         0.476373         0.003557         0.790594
 H         4.830673         3.136926        -1.771538
 H         1.097002         3.095446        -3.007296
 H         2.285678         3.012217        -4.352078
 H         3.041085         0.897831        -4.015193
 H         0.765757         0.061318        -2.590919
 H         2.373601        -0.494291        -1.740225
 H         0.353778         1.638219        -1.069102
 H         2.517118         3.392911        -0.619793
 H         3.420596         1.870430        -0.366306
 H         2.602811         0.149165         0.536908
