19
Iteration:  3372
 O         4.331230         2.883718        -2.677784
 C         3.022231         2.486591        -2.402710
 C         2.099672         2.413221        -3.581312
 C         2.555343         1.135857        -2.962236
 C         1.837342         0.257984        -2.030704
 C         1.467115         1.353923        -0.870517
 C         2.532663         2.406648        -0.971880
 C         1.351005         0.393160         0.403168
 O         0.280101         0.108878         0.887359
 H         4.515275         3.832620        -2.713988
 H         1.071915         2.742308        -3.720758
 H         2.664251         2.504343        -4.443968
 H         3.367257         0.770293        -3.703502
 H         0.821381        -0.051429        -2.362787
 H         2.506299        -0.585228        -1.780270
 H         0.530457         1.824165        -1.133282
 H         2.137052         3.407749        -0.654798
 H         3.390218         2.255330        -0.295546
 H         2.339335         0.046772         0.780163
