19
Iteration:  3822
 O         4.296663         2.875994        -2.519906
 C         3.057961         2.357735        -2.295455
 C         2.035375         2.371120        -3.487802
 C         2.780863         1.149175        -3.036071
 C         1.791326         0.224330        -2.163912
 C         1.275335         1.191193        -1.106131
 C         2.380045         2.348392        -0.924377
 C         1.377887         0.436989         0.178844
 O         0.524690         0.443811         1.022961
 H         4.253182         3.852172        -2.440508
 H         0.955774         2.231351        -3.299456
 H         2.360870         3.037470        -4.304397
 H         3.459432         0.497359        -3.639549
 H         1.004239        -0.343033        -2.678677
 H         2.465409        -0.545620        -1.717459
 H         0.150130         1.628098        -1.163170
 H         1.760373         3.211187        -0.680699
 H         3.116092         2.251739        -0.150578
 H         2.469192         0.122776         0.376620
