19
Iteration:   228
 O         4.288977         2.944623        -2.198294
 C         3.059346         2.339124        -2.363852
 C         2.055892         2.577785        -3.498241
 C         2.559701         1.107416        -3.183533
 C         1.872370         0.209919        -2.191559
 C         1.186231         1.103767        -1.171046
 C         2.319020         2.284615        -1.107886
 C         1.346847         0.419828         0.172462
 O         0.713786         0.452113         1.184772
 H         4.761453         2.854920        -3.043061
 H         1.166938         2.883340        -3.109258
 H         2.386537         3.135473        -4.331695
 H         3.267905         0.713684        -3.933779
 H         1.068778        -0.470352        -2.639929
 H         2.705808        -0.423292        -1.744476
 H         0.100096         1.346907        -1.461510
 H         1.794036         3.238822        -0.961957
 H         3.028789         1.944508        -0.300700
 H         2.402261        -0.066994         0.217292
