19
Iteration:  2810
 O         4.402647         2.680127        -2.595358
 C         3.017008         2.376669        -2.379872
 C         2.000780         2.482490        -3.511426
 C         2.582675         1.104526        -2.993204
 C         1.780712         0.332329        -2.013703
 C         1.369763         1.406315        -0.968367
 C         2.446870         2.534353        -0.980325
 C         1.443824         0.635981         0.393818
 O         0.431020        -0.024772         0.772754
 H         4.556601         3.611693        -2.288849
 H         0.943488         2.651279        -3.587937
 H         2.367272         2.623104        -4.467807
 H         3.346343         0.725153        -3.578464
 H         0.928656        -0.132290        -2.511685
 H         2.490257        -0.400758        -1.581748
 H         0.277999         1.644790        -1.109988
 H         2.003395         3.603441        -0.746201
 H         3.135701         2.257508        -0.102184
 H         2.430615         0.448496         0.896442
