19
Iteration:  4528
 O         4.390288         2.825362        -2.591830
 C         3.030424         2.397743        -2.363928
 C         2.078646         2.435091        -3.511735
 C         2.593274         1.116122        -3.021867
 C         1.810204         0.201899        -2.021268
 C         1.417781         1.288192        -1.021636
 C         2.446873         2.529827        -1.041955
 C         1.347794         0.546193         0.337694
 O         0.373762         0.112737         0.977170
 H         4.355727         3.815929        -2.649276
 H         1.036409         2.724186        -3.416365
 H         2.560549         2.747795        -4.521918
 H         3.162475         0.555891        -3.776975
 H         0.933089        -0.337338        -2.433701
 H         2.516789        -0.486817        -1.487444
 H         0.372316         1.589100        -1.169778
 H         2.070157         3.507881        -0.967112
 H         3.236870         2.372872        -0.297600
 H         2.347645         0.315960         0.624313
