19
Iteration:  1454charge 0 multiplicity 1
 O         4.302124         2.862733        -2.606293
 C         3.006885         2.411804        -2.296524
 C         1.936010         2.562660        -3.340204
 C         2.540461         1.272345        -3.159137
 C         1.789562         0.298824        -2.190942
 C         1.488782         1.252640        -1.005863
 C         2.638091         2.197608        -0.905083
 C         1.364711         0.305139         0.204611
 O         0.420455         0.306989         0.965193
 H         4.463110         3.625325        -2.063830
 H         0.918230         2.767449        -3.144210
 H         2.214713         2.914694        -4.253306
 H         3.161492         0.877476        -3.927136
 H         0.795661        -0.047593        -2.561041
 H         2.517252        -0.550677        -1.768543
 H         0.454136         1.662283        -1.012767
 H         2.460066         3.137528        -0.330481
 H         3.618608         1.722957        -0.533228
 H         2.176271        -0.430013         0.495649
