19
Iteration:  3776
 O         4.285564         3.006000        -2.293435
 C         2.974489         2.314975        -2.460374
 C         2.133431         2.520091        -3.665850
 C         2.609246         1.108700        -3.299171
 C         1.866630         0.219931        -2.320250
 C         1.411169         1.068360        -0.990087
 C         2.454152         2.249233        -1.050031
 C         1.312750         0.365416         0.436735
 O         0.404495         0.477449         1.282232
 H         4.316468         3.645164        -2.978482
 H         1.078538         2.827061        -3.681520
 H         2.794475         2.829043        -4.535127
 H         3.570211         0.690234        -3.727643
 H         1.056839        -0.403578        -2.627795
 H         2.590308        -0.494907        -1.874319
 H         0.309015         1.544411        -1.251016
 H         2.014713         3.298113        -0.895492
 H         3.337293         2.421997        -0.356955
 H         2.259290        -0.244396         0.646474
