19
Iteration:   989
 O         4.457947         2.916750        -2.407891
 C         3.067889         2.386722        -2.476307
 C         1.979544         2.603702        -3.506177
 C         2.408787         1.182544        -3.101026
 C         1.721361         0.364778        -2.033955
 C         1.440197         1.239035        -0.953715
 C         2.633945         2.347728        -1.046377
 C         1.430117         0.391753         0.337246
 O         0.356023         0.046359         0.911153
 H         4.512622         3.634013        -3.019328
 H         1.042198         3.083927        -3.222408
 H         2.243167         2.721042        -4.491651
 H         2.684701         0.561726        -4.049916
 H         0.800785        -0.117854        -2.300199
 H         2.390657        -0.485951        -1.763567
 H         0.525030         1.757087        -1.035756
 H         2.275496         3.308514        -0.751924
 H         3.483014         2.067927        -0.386889
 H         2.356214        -0.136215         0.669975
