19
Iteration:  2746charge 0 multiplicity 1
 O         4.385610         2.879811        -2.562796
 C         3.083111         2.374430        -2.424425
 C         2.153095         2.532480        -3.660610
 C         2.547666         1.097411        -3.156252
 C         1.668425         0.337724        -2.123940
 C         1.490062         1.247624        -0.891740
 C         2.510162         2.400351        -0.989355
 C         1.310582         0.639213         0.618200
 O         0.371871        -0.053167         0.911694
 H         4.462367         3.743953        -2.986167
 H         1.119220         2.864327        -3.702195
 H         2.710118         2.711555        -4.507073
 H         3.268655         0.472793        -3.546119
 H         0.637352        -0.130982        -2.534294
 H         2.021478        -0.677421        -1.705933
 H         0.509898         1.787134        -0.904675
 H         1.971043         3.355140        -0.808162
 H         3.297373         2.395851        -0.262274
 H         2.244697         0.691837         1.241998
