19
Iteration:  3925charge 0 multiplicity 1
 O         4.393852         2.998327        -2.553591
 C         3.127980         2.395620        -2.379013
 C         1.953353         2.350425        -3.368408
 C         2.652440         1.080940        -3.037226
 C         1.862467         0.221366        -2.123095
 C         1.301579         1.243128        -1.044834
 C         2.518079         2.353851        -0.965254
 C         1.373466         0.546501         0.318422
 O         0.330518         0.269945         0.925308
 H         4.274964         3.520878        -3.327013
 H         0.925908         2.565261        -3.100206
 H         2.305467         2.717481        -4.378324
 H         3.157244         0.494342        -3.911059
 H         1.087477        -0.356191        -2.741754
 H         2.623202        -0.510515        -1.708707
 H         0.231377         1.456603        -1.060918
 H         2.232950         3.319938        -0.631659
 H         3.282620         2.049604        -0.319244
 H         2.333625         0.158797         0.759601
