19
Iteration:  3375
 O         4.340956         2.861205        -2.678263
 C         3.006598         2.474624        -2.374853
 C         2.086523         2.407870        -3.568228
 C         2.568618         1.141882        -2.956342
 C         1.840142         0.292921        -2.037647
 C         1.484707         1.356978        -0.895177
 C         2.504889         2.408800        -0.957534
 C         1.363740         0.427606         0.400712
 O         0.290018         0.110144         0.866217
 H         4.409198         3.876515        -2.680458
 H         1.034422         2.718565        -3.599445
 H         2.654516         2.478094        -4.549816
 H         3.287426         0.683453        -3.676942
 H         0.868917        -0.119259        -2.448148
 H         2.436469        -0.569501        -1.657575
 H         0.494409         1.706779        -1.129255
 H         2.188603         3.327091        -0.640721
 H         3.367072         2.217434        -0.338270
 H         2.411621         0.010751         0.711847
