19
Iteration:  3285charge 0 multiplicity 1
 O         4.329590         2.887470        -2.517242
 C         2.989009         2.351306        -2.379500
 C         1.968099         2.463881        -3.443103
 C         2.653724         1.139259        -3.129461
 C         1.919160         0.245000        -2.135428
 C         1.391100         1.166169        -1.056302
 C         2.507273         2.309576        -0.923945
 C         1.415773         0.427771         0.334246
 O         0.337690         0.416881         0.949083
 H         4.164952         3.876082        -2.430425
 H         0.895774         2.502476        -3.191956
 H         2.284204         3.086767        -4.228182
 H         3.172511         0.640322        -4.081800
 H         1.146094        -0.510515        -2.479079
 H         2.702430        -0.477413        -1.813674
 H         0.405004         1.531882        -1.257346
 H         2.210727         3.250909        -0.606885
 H         3.414883         2.050161        -0.419900
 H         2.311797        -0.048207         0.733381
