19
Iteration:  4628charge 0 multiplicity 1
 O         4.331455         2.948502        -2.611108
 C         3.079265         2.399391        -2.456656
 C         2.015010         2.417863        -3.561568
 C         2.673698         1.115065        -3.084863
 C         1.874511         0.194845        -2.030584
 C         1.445822         1.239175        -0.966242
 C         2.572444         2.364655        -0.895458
 C         1.265239         0.553107         0.386693
 O         0.278431         0.203595         0.985110
 H         4.180693         3.807741        -3.047931
 H         0.894685         2.554377        -3.328499
 H         2.382197         2.654586        -4.546888
 H         3.239758         0.545350        -3.753763
 H         0.984900        -0.199539        -2.582508
 H         2.510782        -0.658400        -1.803689
 H         0.545256         1.800338        -1.233834
 H         2.197334         3.281461        -0.560490
 H         3.452034         2.037011        -0.363661
 H         2.256424         0.337872         0.876167
