19
Iteration:  1321
 O         4.330279         3.011242        -2.520767
 C         3.124553         2.302232        -2.345613
 C         2.015714         2.645055        -3.427143
 C         2.551302         1.267994        -3.244389
 C         1.751553         0.269509        -2.264905
 C         1.319179         1.166320        -1.057029
 C         2.526526         2.248101        -0.888259
 C         1.348940         0.322572         0.288055
 O         0.459057         0.276216         1.145496
 H         4.995942         2.490418        -3.000596
 H         0.973749         2.806592        -3.166916
 H         2.523038         3.058739        -4.314854
 H         3.297498         0.741045        -3.908997
 H         0.998572        -0.283501        -2.786559
 H         2.357360        -0.544044        -1.791151
 H         0.207336         1.378407        -1.017039
 H         2.151461         3.264054        -0.612444
 H         3.284055         1.795558        -0.254777
 H         2.441049         0.047477         0.467906
