19
Iteration:  4364
 O         4.242746         2.967530        -2.536298
 C         3.061303         2.366940        -2.371762
 C         2.085984         2.531817        -3.414868
 C         2.652084         1.124912        -3.122758
 C         1.940342         0.076739        -2.174729
 C         1.425023         1.047961        -1.116735
 C         2.479649         2.244600        -1.005681
 C         1.324915         0.501341         0.346207
 O         0.339619         0.500431         1.055785
 H         4.156276         3.935888        -2.556310
 H         1.016150         2.829737        -3.033820
 H         2.088040         2.902560        -4.396657
 H         3.451525         0.740500        -3.930564
 H         1.073699        -0.346193        -2.698813
 H         2.680568        -0.597729        -1.694316
 H         0.436102         1.426490        -1.222029
 H         2.151554         3.178513        -0.567868
 H         3.263761         1.834910        -0.305386
 H         2.247133        -0.112939         0.750018
