19
Iteration:  2226
 O         4.269888         2.995052        -2.602757
 C         2.992206         2.447986        -2.364277
 C         2.022816         2.470602        -3.632370
 C         2.565636         1.178191        -3.076666
 C         1.914897         0.237971        -2.034562
 C         1.521561         1.190879        -0.876909
 C         2.632170         2.253036        -0.874081
 C         1.330466         0.398701         0.389093
 O         0.244604         0.303835         0.859599
 H         4.534694         3.210576        -3.510875
 H         0.935087         2.556266        -3.557325
 H         2.379686         2.814635        -4.637852
 H         3.354557         0.613349        -3.569527
 H         0.885465        -0.144360        -2.313104
 H         2.535160        -0.559970        -1.713847
 H         0.599558         1.736388        -1.022673
 H         2.488508         3.194933        -0.247676
 H         3.573863         1.781987        -0.330600
 H         2.231064        -0.101211         0.762924
