19
Iteration:  4781charge 0 multiplicity 1
 O         4.296208         3.012647        -2.463515
 C         2.951031         2.349897        -2.360185
 C         2.053426         2.426480        -3.581698
 C         2.736357         1.069888        -3.115925
 C         1.911965         0.157641        -2.187489
 C         1.403639         1.075993        -1.067554
 C         2.465329         2.296594        -0.983872
 C         1.293119         0.374351         0.289925
 O         0.424613         0.563776         1.142632
 H         4.095569         3.948545        -2.445641
 H         0.957936         2.719959        -3.432950
 H         2.359737         2.869599        -4.611746
 H         3.525090         0.639307        -3.902294
 H         0.988721        -0.254736        -2.703126
 H         2.497330        -0.682503        -1.797829
 H         0.398087         1.522259        -1.221563
 H         2.010574         3.194775        -0.602262
 H         3.277382         2.106290        -0.218020
 H         2.096891        -0.283872         0.491147
