19
Iteration:  2733charge 0 multiplicity 1
 O         4.379136         2.846631        -2.591349
 C         3.019302         2.370748        -2.391385
 C         2.160306         2.457677        -3.663028
 C         2.620783         1.151347        -3.084701
 C         1.652408         0.302608        -2.121795
 C         1.479694         1.321514        -0.773327
 C         2.520837         2.459850        -0.984024
 C         1.375978         0.555454         0.515679
 O         0.320922        -0.032219         0.903969
 H         4.126459         3.582848        -3.198308
 H         1.107737         2.607583        -3.712974
 H         2.759954         2.883184        -4.481141
 H         3.281226         0.730192        -3.853523
 H         0.612969         0.164963        -2.524674
 H         2.336206        -0.599783        -2.036779
 H         0.432268         1.666900        -1.035200
 H         2.109975         3.523218        -0.723849
 H         3.441489         2.252042        -0.372653
 H         2.156514         0.716784         1.304101
