19
Iteration:  2956charge 0 multiplicity 1
 O         4.283652         2.920194        -2.616695
 C         2.956100         2.463492        -2.411480
 C         2.038274         2.542478        -3.544496
 C         2.682370         1.238996        -3.110318
 C         2.007060         0.187256        -2.120422
 C         1.523761         1.042445        -0.928666
 C         2.505145         2.286617        -0.943961
 C         1.255473         0.334053         0.403439
 O         0.230578         0.416674         1.052574
 H         4.603853         3.153673        -3.465742
 H         1.041989         3.043703        -3.397940
 H         2.532234         3.273427        -4.192435
 H         3.326635         0.757254        -3.858204
 H         1.223741        -0.482888        -2.627158
 H         2.814000        -0.522834        -1.845637
 H         0.518836         1.409948        -1.186322
 H         2.015734         3.170736        -0.486668
 H         3.515260         2.073640        -0.410098
 H         2.067378        -0.399488         0.705681
