19
Iteration:  2442
 O         4.304406         2.983376        -2.431257
 C         2.970686         2.345252        -2.391519
 C         2.189002         2.557571        -3.585689
 C         2.661318         1.141575        -3.151680
 C         1.814737         0.251134        -2.235904
 C         1.391990         1.120678        -1.015618
 C         2.327549         2.282505        -1.092817
 C         1.329255         0.324842         0.389281
 O         0.457124         0.421075         1.233424
 H         4.614989         2.957324        -3.370228
 H         1.105164         2.816294        -3.559686
 H         2.789266         3.067083        -4.292018
 H         3.246064         0.480936        -3.835009
 H         0.993854        -0.210819        -2.726033
 H         2.485370        -0.574651        -1.851472
 H         0.403023         1.612198        -1.164333
 H         2.033220         3.254740        -0.800751
 H         3.241906         2.092331        -0.492673
 H         2.201278        -0.235686         0.614023
