19
Iteration:   955
 O         4.302996         2.723842        -2.639084
 C         2.983835         2.396686        -2.296985
 C         2.055017         2.602292        -3.443515
 C         2.633176         1.216077        -3.043693
 C         1.726772         0.463620        -2.164919
 C         1.369656         1.310983        -0.993990
 C         2.564853         2.335658        -0.880714
 C         1.410312         0.452805         0.296014
 O         0.440599         0.022975         0.929090
 H         4.224670         3.633688        -2.943941
 H         1.017924         2.693284        -3.386674
 H         2.501577         3.042563        -4.308385
 H         3.285294         0.579367        -3.729613
 H         0.868706         0.111839        -2.605744
 H         2.279804        -0.408785        -1.686927
 H         0.375367         1.637662        -1.072781
 H         2.288451         3.326464        -0.570883
 H         3.406820         1.956961        -0.242010
 H         2.446140         0.134121         0.571466
