19
Iteration:  1122charge 0 multiplicity 1
 O         4.325212         2.899385        -2.636791
 C         3.058117         2.400465        -2.304770
 C         1.932943         2.553277        -3.400887
 C         2.572495         1.245676        -3.120601
 C         1.844613         0.314641        -2.281736
 C         1.457661         1.168130        -0.935684
 C         2.648347         2.193825        -0.854647
 C         1.374330         0.424462         0.358938
 O         0.284567         0.211373         0.938282
 H         4.317207         3.690085        -3.194628
 H         0.904679         2.723184        -3.132181
 H         2.263828         3.001906        -4.381758
 H         3.384392         1.069093        -3.763453
 H         0.975385        -0.069531        -2.758921
 H         2.550804        -0.494685        -2.039741
 H         0.490798         1.717338        -0.953023
 H         2.437045         3.178242        -0.368204
 H         3.428220         1.787654        -0.183092
 H         2.340075         0.018558         0.755233
