19
Iteration:  1061
 O         4.301840         2.996058        -2.542839
 C         3.098656         2.374302        -2.415210
 C         1.986741         2.550004        -3.385363
 C         2.538607         1.214591        -3.206169
 C         1.781106         0.333023        -2.060389
 C         1.462742         1.278307        -0.961471
 C         2.689171         2.207522        -0.926763
 C         1.330409         0.438029         0.321336
 O         0.327592         0.126695         0.926764
 H         4.515792         3.263629        -3.456469
 H         0.991640         2.701180        -2.967444
 H         2.207686         3.163527        -4.289539
 H         3.182824         0.632618        -3.853880
 H         0.780095        -0.138755        -2.452630
 H         2.420450        -0.518432        -1.712131
 H         0.455963         1.645460        -1.261545
 H         2.548225         3.150383        -0.305894
 H         3.429504         1.530329        -0.451008
 H         2.261078        -0.134117         0.550033
