19
Iteration:   846charge 0 multiplicity 1
 O         4.433960         2.792988        -2.634352
 C         3.087330         2.399425        -2.365652
 C         1.998277         2.692945        -3.355229
 C         2.656493         1.164316        -3.082752
 C         1.755680         0.266007        -2.271814
 C         1.386579         1.229258        -1.002769
 C         2.421834         2.403449        -0.965721
 C         1.327302         0.355796         0.333944
 O         0.432247         0.135986         1.084136
 H         4.382954         3.681565        -3.002131
 H         0.986327         2.772980        -3.028764
 H         2.263286         3.190988        -4.299242
 H         3.224846         0.886603        -3.966941
 H         0.870001        -0.003004        -2.766565
 H         2.257469        -0.617245        -1.900015
 H         0.392491         1.517628        -1.141385
 H         2.130316         3.342088        -0.629799
 H         3.223917         2.149980        -0.327058
 H         2.329168         0.074824         0.721200
