19
Iteration:  1312
 O         4.309862         2.984128        -2.469886
 C         3.036333         2.316989        -2.373737
 C         2.025290         2.699151        -3.445390
 C         2.551126         1.166568        -3.207901
 C         1.755008         0.310078        -2.323784
 C         1.401023         1.106052        -0.986594
 C         2.517037         2.243512        -0.934852
 C         1.405046         0.337181         0.315701
 O         0.437323         0.287588         1.117025
 H         4.940137         2.563494        -3.083840
 H         0.991101         2.690409        -3.472639
 H         2.428590         3.266574        -4.318354
 H         3.459769         0.718864        -3.730421
 H         0.783289        -0.052084        -2.714664
 H         2.328103        -0.478008        -2.009747
 H         0.482997         1.759048        -1.061388
 H         2.166087         3.217260        -0.557825
 H         3.302549         1.991176        -0.252501
 H         2.383828        -0.168647         0.666057
