19
Iteration:   544
 O         4.392548         2.694699        -2.458823
 C         2.960903         2.371614        -2.420567
 C         1.895586         2.564094        -3.525179
 C         2.535095         1.155704        -3.087867
 C         1.728142         0.319505        -2.072452
 C         1.501408         1.304026        -1.006259
 C         2.452963         2.461914        -0.942532
 C         1.557759         0.540688         0.345924
 O         0.493179         0.088990         0.793877
 H         4.282102         3.207309        -1.611140
 H         0.918402         2.762909        -3.189342
 H         2.197223         2.749253        -4.529442
 H         3.301288         0.790351        -3.822707
 H         0.762246        -0.037494        -2.497273
 H         2.336067        -0.486867        -1.916302
 H         0.456144         1.689073        -0.991259
 H         1.909532         3.378097        -0.687308
 H         3.084171         2.402351        -0.156693
 H         2.523278         0.388711         0.869243
