19
Iteration:  2377
 O         4.287661         2.927083        -2.421020
 C         3.037908         2.263368        -2.261400
 C         2.070071         2.394515        -3.535295
 C         2.690521         1.049585        -3.059710
 C         1.723391         0.294374        -2.278918
 C         1.320445         1.269518        -1.071585
 C         2.357685         2.368602        -0.885686
 C         1.429593         0.481242         0.211589
 O         0.578434         0.389213         1.023237
 H         4.153975         3.137650        -3.370835
 H         1.004006         2.593920        -3.250192
 H         2.449888         2.984997        -4.314722
 H         3.529064         0.598121        -3.633010
 H         0.994059        -0.152763        -2.895646
 H         2.347870        -0.637896        -1.828301
 H         0.277798         1.619316        -1.248696
 H         1.884368         3.250012        -0.568557
 H         2.984037         2.042799        -0.110347
 H         2.483737         0.059351         0.497753
