19
Iteration:   222charge 0 multiplicity 1
 O         4.265573         2.912191        -2.188199
 C         3.056244         2.266495        -2.375320
 C         2.066445         2.609688        -3.529740
 C         2.574459         1.182380        -3.189326
 C         1.860009         0.207172        -2.164035
 C         1.171958         1.044331        -1.184504
 C         2.307851         2.276408        -1.067456
 C         1.398298         0.469493         0.161056
 O         0.712536         0.457017         1.176040
 H         4.652327         2.935722        -3.059002
 H         0.996445         2.815895        -3.047920
 H         2.600360         3.079910        -4.414025
 H         3.196784         0.686193        -3.942718
 H         1.214931        -0.360982        -2.781122
 H         2.578996        -0.404549        -1.667644
 H         0.213159         1.398018        -1.397344
 H         1.684425         3.156678        -0.906660
 H         3.083031         2.171301        -0.312767
 H         2.426192        -0.045223         0.266034
