19
Iteration:  1488charge 0 multiplicity 1
 O         4.368754         2.893692        -2.610604
 C         3.115889         2.399602        -2.350946
 C         2.030739         2.704065        -3.357097
 C         2.484991         1.278510        -3.239454
 C         1.785778         0.280608        -2.249201
 C         1.511944         1.073506        -0.902474
 C         2.575575         2.288009        -0.976316
 C         1.375271         0.271720         0.396996
 O         0.296050         0.237831         1.060333
 H         4.347198         3.601768        -3.269856
 H         1.040718         2.983573        -3.034219
 H         2.285688         3.136242        -4.304138
 H         3.068270         1.056641        -4.107545
 H         0.905842        -0.076197        -2.839428
 H         2.344777        -0.701266        -2.096351
 H         0.556526         1.556804        -1.063386
 H         2.084298         3.122319        -0.483120
 H         3.438276         1.938842        -0.370419
 H         2.246537        -0.273410         0.853267
