19
Iteration:   875
 O         4.366303         2.744170        -2.553340
 C         2.969776         2.475735        -2.317249
 C         2.051593         2.541124        -3.527599
 C         2.478927         1.231704        -3.123881
 C         1.720829         0.354775        -2.177802
 C         1.403346         1.301592        -0.959841
 C         2.499838         2.307802        -0.903661
 C         1.459998         0.390691         0.242546
 O         0.464841         0.136471         0.963431
 H         4.495263         3.643747        -2.250699
 H         0.926761         2.868992        -3.584166
 H         2.663301         3.033234        -4.297191
 H         3.235928         0.782592        -3.712634
 H         0.853668        -0.308708        -2.446039
 H         2.506539        -0.343546        -1.750458
 H         0.277678         1.657117        -0.956579
 H         2.343233         3.295106        -0.308545
 H         3.444958         1.805716        -0.457474
 H         2.456164         0.230368         0.738241
