19
Iteration:  1943
 O         4.376141         2.844415        -2.403632
 C         3.036217         2.299612        -2.348222
 C         2.006950         2.549309        -3.411705
 C         2.593870         1.165375        -3.130805
 C         1.690437         0.254737        -2.207648
 C         1.331911         1.201579        -1.081560
 C         2.449789         2.321606        -1.012882
 C         1.418508         0.396602         0.180843
 O         0.565177         0.353976         1.040723
 H         4.084339         3.776413        -2.353386
 H         1.072013         3.002657        -3.186952
 H         2.562752         3.010931        -4.136428
 H         3.384344         0.788958        -3.856015
 H         0.769834        -0.177249        -2.695029
 H         2.379709        -0.530704        -1.844499
 H         0.329793         1.550276        -1.045521
 H         1.969930         3.321007        -0.731073
 H         3.252913         2.103834        -0.171728
 H         2.323782        -0.284800         0.305217
