19
Iteration:  1935charge 0 multiplicity 1
 O         4.353916         2.876016        -2.364716
 C         3.051047         2.278325        -2.324912
 C         2.061391         2.560389        -3.484479
 C         2.556836         1.166908        -3.168658
 C         1.728886         0.348161        -2.270485
 C         1.382196         1.204637        -1.064280
 C         2.448610         2.289248        -1.023429
 C         1.400705         0.313912         0.269926
 O         0.522417         0.356925         1.091916
 H         4.122897         3.800128        -2.646905
 H         1.035790         2.851473        -3.189091
 H         2.369632         2.897356        -4.485520
 H         3.096428         0.657785        -3.931222
 H         0.874653        -0.165874        -2.616465
 H         2.367165        -0.412357        -1.858675
 H         0.343353         1.716024        -1.173434
 H         2.069472         3.278020        -0.673005
 H         3.249876         2.069933        -0.262451
 H         2.416359        -0.355012         0.338507
