19
Iteration:   652charge 0 multiplicity 1
 O         4.323268         3.122049        -2.400911
 C         3.116642         2.286352        -2.420469
 C         1.996657         2.584246        -3.365693
 C         2.499815         1.112590        -3.225449
 C         1.705151         0.185568        -2.255697
 C         1.521638         1.133889        -0.958262
 C         2.597252         2.281289        -0.964513
 C         1.390960         0.369354         0.323397
 O         0.407483         0.358907         0.979548
 H         4.605791         3.236250        -3.310463
 H         1.062631         2.688386        -3.015923
 H         2.188477         3.194846        -4.180430
 H         2.968710         0.606599        -4.046147
 H         0.684767        -0.201561        -2.612273
 H         2.307313        -0.748625        -1.955121
 H         0.482384         1.509105        -1.068310
 H         2.059345         3.188673        -0.643091
 H         3.313703         1.738008        -0.244798
 H         2.218689        -0.329006         0.557683
