19
Iteration:  3991charge 0 multiplicity 1
 O         4.310798         2.922520        -2.671650
 C         2.982599         2.486430        -2.430993
 C         2.017775         2.452932        -3.643990
 C         2.662137         1.160604        -3.042077
 C         1.946932         0.220498        -2.067896
 C         1.511836         1.178435        -0.855675
 C         2.599449         2.324315        -0.915845
 C         1.280070         0.563021         0.500142
 O         0.200273         0.175447         0.905333
 H         4.454803         3.917866        -2.774109
 H         0.874925         2.505920        -3.685213
 H         2.533176         2.780397        -4.563770
 H         3.385669         0.548115        -3.746368
 H         0.910732        -0.060089        -2.511635
 H         2.482529        -0.708133        -1.777870
 H         0.579509         1.635581        -1.213499
 H         2.423476         3.035519        -0.136655
 H         3.430400         1.832141        -0.524240
 H         2.245943         0.315665         1.000262
