19
Iteration:   715
 O         4.303847         2.867451        -2.473957
 C         3.040817         2.413643        -2.379225
 C         1.862949         2.636752        -3.364226
 C         2.513924         1.214292        -3.172875
 C         1.925126         0.294595        -2.216647
 C         1.554588         1.128576        -0.977753
 C         2.594342         2.171555        -0.931319
 C         1.333085         0.248287         0.281676
 O         0.371844         0.463163         0.977109
 H         4.351873         3.634690        -3.023550
 H         0.822459         2.844699        -3.061220
 H         2.123199         3.058580        -4.323390
 H         3.111183         0.852262        -4.018783
 H         1.104105        -0.353170        -2.494260
 H         2.766497        -0.423626        -1.971457
 H         0.596129         1.512841        -1.142443
 H         2.269803         3.063086        -0.425873
 H         3.594299         1.859965        -0.538234
 H         2.065367        -0.620214         0.411660
