19
Iteration:  2361
 O         4.328274         2.920784        -2.496719
 C         3.076075         2.376466        -2.309036
 C         2.122500         2.408865        -3.390607
 C         2.688353         1.086097        -3.086877
 C         1.746720         0.241517        -2.235056
 C         1.275858         1.159556        -1.088655
 C         2.366162         2.425181        -0.975375
 C         1.361822         0.457053         0.264314
 O         0.520967         0.327433         1.102566
 H         4.502609         3.595237        -3.186446
 H         1.058020         2.480064        -3.396568
 H         2.540118         2.797166        -4.370040
 H         3.351972         0.646733        -3.822797
 H         0.763831        -0.087617        -2.761503
 H         2.204450        -0.606792        -1.885451
 H         0.273321         1.582272        -1.204294
 H         1.965844         3.513901        -0.971677
 H         3.182453         2.280291        -0.169189
 H         2.439876        -0.024667         0.276240
