19
Iteration:  2573charge 0 multiplicity 1
 O         4.326319         2.956307        -2.567794
 C         3.088338         2.386026        -2.395656
 C         1.949419         2.392534        -3.408411
 C         2.694616         1.075623        -3.080013
 C         1.830482         0.152512        -2.193742
 C         1.456598         1.303032        -0.968545
 C         2.514230         2.350541        -0.892009
 C         1.290321         0.366546         0.219434
 O         0.377782         0.428644         0.992770
 H         4.300885         3.924193        -2.355135
 H         0.944586         2.480029        -3.092400
 H         2.034340         2.768075        -4.463825
 H         3.220726         0.559546        -3.899015
 H         1.002329        -0.341259        -2.755578
 H         2.506708        -0.588375        -1.856007
 H         0.467479         1.785257        -1.084743
 H         2.321436         3.334473        -0.467591
 H         3.399052         1.862387        -0.267632
 H         2.166293        -0.253863         0.401628
