19
Iteration:   229charge 0 multiplicity 1
 O         4.295180         2.949129        -2.202166
 C         3.053840         2.349439        -2.366186
 C         2.059338         2.569838        -3.491424
 C         2.560334         1.099893        -3.182107
 C         1.871208         0.206179        -2.202873
 C         1.191726         1.114695        -1.167743
 C         2.315562         2.285044        -1.109452
 C         1.345388         0.410453         0.176040
 O         0.711590         0.451841         1.186566
 H         4.780385         2.850654        -3.020834
 H         1.154856         2.912028        -3.129727
 H         2.340846         3.129592        -4.320644
 H         3.277373         0.707755        -3.938220
 H         1.081432        -0.476730        -2.600458
 H         2.702636        -0.419482        -1.762082
 H         0.119335         1.342693        -1.457094
 H         1.832610         3.244257        -0.946396
 H         3.001536         1.932241        -0.297109
 H         2.351919        -0.050817         0.197535
