19
Iteration:  3625charge 0 multiplicity 1
 O         4.343544         2.918338        -2.582757
 C         3.076615         2.389559        -2.321724
 C         1.870432         2.345420        -3.459070
 C         2.712155         1.179308        -2.998643
 C         1.864610         0.185779        -2.124644
 C         1.439685         1.176562        -1.051622
 C         2.524109         2.305134        -0.953901
 C         1.311823         0.511607         0.216561
 O         0.393233         0.390207         0.977798
 H         4.248366         3.750897        -2.108871
 H         0.835491         2.556714        -3.037256
 H         2.199292         2.825928        -4.368833
 H         3.320575         0.869086        -3.808072
 H         0.979763        -0.240380        -2.657382
 H         2.509075        -0.654166        -1.772147
 H         0.587023         1.697823        -1.475694
 H         1.833772         3.130425        -0.656702
 H         3.295293         1.969041        -0.167138
 H         2.329320         0.044842         0.378373
