19
Iteration:  2841
 O         4.422624         2.835592        -2.622740
 C         3.084640         2.351829        -2.479450
 C         2.137159         2.526762        -3.598262
 C         2.530737         1.079714        -3.051871
 C         1.753325         0.402676        -1.953926
 C         1.504350         1.377252        -0.853917
 C         2.463427         2.590110        -1.052997
 C         1.343046         0.399311         0.561432
 O         0.285343        -0.067550         0.843409
 H         4.385836         3.710485        -3.009762
 H         1.073991         2.779166        -3.614891
 H         2.520532         2.495281        -4.584455
 H         3.215764         0.607863        -3.682588
 H         0.906356        -0.065977        -2.254114
 H         2.352008        -0.451969        -1.771334
 H         0.445117         1.706251        -1.022456
 H         1.945705         3.601497        -0.957374
 H         3.266872         2.474321        -0.284141
 H         2.277518         0.114700         1.128774
