19
Iteration:  3013charge 0 multiplicity 1
 O         4.221916         3.123401        -2.294511
 C         3.113745         2.295877        -2.377522
 C         1.968885         2.428894        -3.509067
 C         2.654584         1.080401        -3.140994
 C         1.841856         0.127199        -2.232997
 C         1.403283         1.059881        -1.128394
 C         2.517796         2.162121        -0.946834
 C         1.373545         0.460098         0.291231
 O         0.441995         0.593880         1.031147
 H         4.203560         3.795258        -3.042337
 H         1.088983         2.728115        -2.981439
 H         2.169000         2.810283        -4.495813
 H         3.175751         0.715435        -3.958115
 H         1.060007        -0.252430        -2.938810
 H         2.368935        -0.759202        -1.757512
 H         0.511534         1.522571        -1.391406
 H         2.191895         3.060726        -0.512549
 H         3.438585         1.786702        -0.347119
 H         2.201398        -0.238683         0.518011
