19
Iteration:  3705charge 0 multiplicity 1
 O         4.258909         3.019331        -2.422406
 C         3.033688         2.290206        -2.396208
 C         1.966655         2.431553        -3.454796
 C         2.738631         1.040801        -3.115781
 C         1.892542         0.283057        -2.185398
 C         1.346655         1.154882        -1.049271
 C         2.505674         2.217778        -0.986807
 C         1.323085         0.368620         0.260634
 O         0.450147         0.537484         1.044503
 H         4.272877         3.567053        -3.193958
 H         0.940402         2.521266        -3.152944
 H         2.247911         3.049088        -4.329931
 H         3.610034         0.592094        -3.668957
 H         1.062923        -0.136025        -2.819572
 H         2.481853        -0.577844        -1.857700
 H         0.482158         1.642045        -1.213983
 H         1.981005         3.127231        -0.686606
 H         3.156171         2.119857         0.003569
 H         2.253299        -0.243506         0.437531
