19
Iteration:  4860charge 0 multiplicity 1
 O         4.339509         2.934998        -2.377882
 C         3.037777         2.369172        -2.299419
 C         2.019480         2.397614        -3.526048
 C         2.733444         1.023160        -3.102054
 C         1.856753         0.169688        -2.170051
 C         1.313402         1.086450        -1.089664
 C         2.297615         2.384265        -1.040496
 C         1.402910         0.460557         0.217642
 O         0.530025         0.531966         1.057018
 H         4.322263         3.892991        -2.451176
 H         1.015665         2.463874        -3.160163
 H         2.182019         2.896613        -4.462757
 H         3.351263         0.602717        -3.845776
 H         1.058336        -0.250014        -2.922179
 H         2.321086        -0.776373        -1.819926
 H         0.223569         1.396852        -1.023078
 H         1.721205         3.360331        -1.010686
 H         2.994194         2.235951        -0.193325
 H         2.486099         0.025190         0.483746
