19
Iteration:  3061charge 0 multiplicity 1
 O         4.305300         3.014105        -2.464031
 C         2.935015         2.472986        -2.355632
 C         2.147018         2.449156        -3.665146
 C         2.727579         1.129064        -3.094396
 C         1.858410         0.191416        -2.300756
 C         1.366971         1.034604        -0.954991
 C         2.353208         2.186419        -0.963944
 C         1.246781         0.280864         0.264198
 O         0.517497         0.592035         1.234900
 H         4.233467         3.953304        -2.530487
 H         1.023346         2.618879        -3.680480
 H         2.638697         2.939206        -4.531609
 H         3.668679         0.616872        -3.573747
 H         1.018838        -0.138783        -2.915657
 H         2.574898        -0.681726        -2.212732
 H         0.297882         1.404599        -1.252096
 H         2.011787         3.174017        -0.504658
 H         3.184229         1.893183        -0.417352
 H         2.080284        -0.396114         0.479226
