19
Iteration:  3456charge 0 multiplicity 1
 O         4.297714         2.793935        -2.571471
 C         2.981904         2.411671        -2.456896
 C         2.169566         2.485487        -3.723880
 C         2.612167         1.163016        -3.131567
 C         1.850139         0.348289        -2.140819
 C         1.407363         1.272796        -0.846062
 C         2.499931         2.437678        -0.930555
 C         1.345540         0.548135         0.598466
 O         0.319441         0.009219         0.947002
 H         4.338900         3.769338        -2.699926
 H         1.162978         2.941903        -3.658872
 H         2.753585         2.849445        -4.529297
 H         3.268122         0.493724        -3.753119
 H         0.938126        -0.178114        -2.423431
 H         2.616481        -0.454315        -1.884104
 H         0.346854         1.404644        -1.267169
 H         2.146778         3.500265        -0.752168
 H         3.416799         2.252454        -0.361905
 H         2.247623         0.556826         1.230379
