19
Iteration:    12
 O         4.345775         2.863866        -2.499752
 C         2.997317         2.397299        -2.340653
 C         1.927730         2.457194        -3.553015
 C         2.612236         1.169848        -3.058698
 C         1.952033         0.182195        -2.089763
 C         1.319113         1.204481        -1.017396
 C         2.453472         2.358441        -0.970881
 C         1.449843         0.472512         0.300924
 O         0.401928         0.362340         0.966892
 H         4.284749         3.774556        -2.920655
 H         0.875185         2.324395        -3.554497
 H         2.355770         3.105434        -4.308000
 H         3.354089         0.637467        -3.661541
 H         1.328148        -0.547195        -2.591001
 H         2.810805        -0.351910        -1.641442
 H         0.279083         1.446338        -1.214447
 H         2.159257         3.297596        -0.520377
 H         3.264929         1.930303        -0.355509
 H         2.297386        -0.130527         0.383516
