19
Iteration:  2181
 O         4.267011         3.185102        -2.634282
 C         3.163340         2.256510        -2.402949
 C         1.932868         2.422634        -3.369333
 C         2.643358         1.047214        -3.148364
 C         1.866795         0.241310        -2.111529
 C         1.441316         1.244102        -0.911861
 C         2.650907         2.212330        -0.909761
 C         1.288453         0.540258         0.348064
 O         0.248200         0.238890         0.876600
 H         4.886225         2.657975        -3.135082
 H         1.039895         2.836511        -2.998563
 H         2.223028         3.153082        -4.191173
 H         3.163029         0.564231        -3.979937
 H         0.970750        -0.235665        -2.498163
 H         2.574378        -0.510131        -1.799261
 H         0.462715         1.708129        -1.035249
 H         2.388042         3.253380        -0.625095
 H         3.521737         1.984005        -0.122915
 H         2.189633         0.243465         0.903929
