19
Iteration:  4501
 O         4.382646         2.834490        -2.481368
 C         2.954284         2.377462        -2.430825
 C         2.125764         2.447871        -3.732311
 C         2.604874         1.194855        -3.156155
 C         1.838732         0.302501        -2.043445
 C         1.448333         1.267286        -0.885003
 C         2.386164         2.347240        -1.033350
 C         1.400609         0.513581         0.483159
 O         0.332228         0.164020         0.970036
 H         4.299081         3.753938        -2.817613
 H         1.069457         2.738017        -3.702985
 H         2.535583         2.772653        -4.612323
 H         3.244673         0.567946        -3.768964
 H         0.996107        -0.250204        -2.432107
 H         2.520288        -0.366701        -1.554363
 H         0.394204         1.507740        -0.772493
 H         2.144991         3.426132        -0.759041
 H         3.250959         2.141070        -0.368125
 H         2.514952         0.321782         0.877952
