19
Iteration:  2732charge 0 multiplicity 1
 O         4.376201         2.841056        -2.591847
 C         3.012683         2.383704        -2.398615
 C         2.161655         2.447998        -3.660317
 C         2.620791         1.145707        -3.073841
 C         1.659920         0.313233        -2.123359
 C         1.471893         1.324634        -0.767351
 C         2.527707         2.462883        -0.981652
 C         1.378376         0.548716         0.504681
 O         0.320591        -0.028211         0.900718
 H         4.088203         3.569999        -3.209599
 H         1.093011         2.616793        -3.656201
 H         2.771580         2.907763        -4.501253
 H         3.291873         0.703757        -3.873114
 H         0.673068         0.157986        -2.523227
 H         2.304067        -0.601733        -2.044441
 H         0.418362         1.622397        -1.032804
 H         2.120618         3.534799        -0.712528
 H         3.456854         2.230746        -0.337427
 H         2.154720         0.718821         1.289739
