19
Iteration:  4509
 O         4.343959         2.823178        -2.499557
 C         3.026735         2.378999        -2.483193
 C         2.099197         2.523372        -3.706335
 C         2.605017         1.067866        -3.111969
 C         1.873385         0.295519        -2.036559
 C         1.390719         1.303135        -0.836483
 C         2.412144         2.391986        -1.025129
 C         1.400439         0.510652         0.426416
 O         0.352054         0.156307         0.959160
 H         4.288697         3.755908        -2.764155
 H         1.137812         2.953518        -3.481566
 H         2.560937         2.747040        -4.720410
 H         3.293750         0.580798        -3.633204
 H         0.957655        -0.215650        -2.428096
 H         2.571365        -0.466077        -1.566920
 H         0.363921         1.560599        -1.053527
 H         1.811566         3.293662        -0.656084
 H         3.300609         2.212962        -0.391478
 H         2.400928         0.244553         0.952677
