19
Iteration:  2712charge 0 multiplicity 1
 O         4.357389         2.846043        -2.628967
 C         3.057566         2.414351        -2.396894
 C         2.051461         2.409028        -3.543606
 C         2.661295         1.100569        -3.007532
 C         1.684618         0.375798        -2.018784
 C         1.418043         1.360813        -0.930897
 C         2.501454         2.403601        -0.933504
 C         1.394611         0.558459         0.410832
 O         0.354020         0.011404         0.831988
 H         4.576595         3.662206        -3.130570
 H         1.016437         2.590220        -3.452935
 H         2.394093         2.606152        -4.550602
 H         3.511257         0.592724        -3.477865
 H         0.681916         0.144659        -2.547106
 H         2.288414        -0.490534        -1.568063
 H         0.516521         2.007017        -1.027402
 H         2.127185         3.387679        -0.515359
 H         3.403926         2.120850        -0.421486
 H         2.386344         0.183072         0.816638
