19
Iteration:  1600charge 0 multiplicity 1
 O         4.432347         2.813231        -2.652593
 C         3.090854         2.448801        -2.410788
 C         2.100496         2.664087        -3.494670
 C         2.513504         1.232854        -3.091979
 C         1.645680         0.403771        -2.182301
 C         1.372345         1.277930        -0.803184
 C         2.596158         2.356117        -0.938724
 C         1.361211         0.428267         0.416266
 O         0.381450        -0.100517         0.977996
 H         4.219615         3.591387        -3.270608
 H         1.062885         3.065130        -3.223296
 H         2.584728         3.021092        -4.513928
 H         3.173288         0.587350        -3.746086
 H         0.676044         0.144350        -2.762789
 H         2.066488        -0.631091        -2.021526
 H         0.456054         1.799176        -0.934246
 H         2.226394         3.291141        -0.512559
 H         3.440142         1.923496        -0.448077
 H         2.429957         0.054818         0.628552
