19
Iteration:    80charge 0 multiplicity 1
 O         4.237305         3.028800        -2.325724
 C         3.036272         2.395585        -2.400408
 C         2.234114         2.518223        -3.651005
 C         2.580018         1.127595        -3.110822
 C         1.752115         0.278115        -2.283195
 C         1.398714         0.962226        -1.029392
 C         2.238321         2.314630        -1.044275
 C         1.470193         0.457131         0.390843
 O         0.540646         0.387988         1.159560
 H         4.816436         2.483283        -2.842646
 H         1.131914         2.750683        -3.556102
 H         2.769672         2.819523        -4.571437
 H         3.113955         0.519294        -3.919263
 H         0.792002         0.062777        -2.797647
 H         2.295515        -0.682141        -2.175742
 H         0.389935         1.131831        -1.079992
 H         1.641766         3.225113        -0.950005
 H         3.026251         2.324409        -0.241582
 H         2.575630         0.072284         0.681537
