19
Iteration:  3411
 O         4.383184         2.829916        -2.533987
 C         3.063408         2.327872        -2.334850
 C         1.968191         2.390042        -3.353028
 C         2.618734         1.090674        -3.085512
 C         1.840153         0.244109        -2.125649
 C         1.400346         1.378769        -1.012346
 C         2.497956         2.449602        -1.017075
 C         1.302120         0.695248         0.324108
 O         0.443793         0.055735         0.867970
 H         4.207019         3.809556        -2.680839
 H         0.888159         2.589066        -3.110766
 H         2.225235         2.728793        -4.395645
 H         3.184751         0.623918        -3.843107
 H         0.991533        -0.202776        -2.644997
 H         2.464373        -0.483462        -1.526982
 H         0.373860         1.847483        -1.309647
 H         2.089292         3.477032        -0.766287
 H         3.240063         2.121435        -0.281211
 H         2.335051         0.397092         0.798085
