19
Iteration:  2088charge 0 multiplicity 1
 O         4.378285         2.909811        -2.580445
 C         3.067990         2.393526        -2.344565
 C         2.106936         2.511849        -3.455295
 C         2.549195         1.126729        -3.066739
 C         1.739535         0.296358        -2.120887
 C         1.379120         1.202867        -0.932360
 C         2.459903         2.315132        -0.996010
 C         1.369043         0.454182         0.304895
 O         0.413025         0.195260         0.949464
 H         4.398562         3.866095        -2.835557
 H         1.110459         2.846112        -3.159719
 H         2.418468         2.943714        -4.466140
 H         3.207564         0.683017        -3.781566
 H         0.866764        -0.186286        -2.584256
 H         2.496902        -0.468512        -1.769503
 H         0.351546         1.543535        -1.256752
 H         2.245880         3.388228        -0.776250
 H         3.301932         1.969545        -0.321757
 H         2.396048         0.124668         0.712725
