19
Iteration:  3855charge 0 multiplicity 1
 O         4.325074         2.985907        -2.544077
 C         3.071352         2.399790        -2.406330
 C         2.103048         2.415124        -3.593717
 C         2.698700         1.075981        -3.033376
 C         1.805398         0.223930        -2.181102
 C         1.328284         1.176960        -0.983285
 C         2.455675         2.367838        -1.051309
 C         1.318535         0.400390         0.318861
 O         0.406242         0.331821         1.121798
 H         4.371231         3.745985        -1.985590
 H         1.005341         2.492773        -3.434738
 H         2.455089         2.928831        -4.469995
 H         3.345260         0.598074        -3.765028
 H         0.975935        -0.316390        -2.621237
 H         2.412124        -0.525852        -1.646480
 H         0.288102         1.669218        -1.289231
 H         2.015041         3.364627        -0.824777
 H         3.250467         2.318180        -0.277640
 H         2.325775        -0.073517         0.567914
