19
Iteration:  3527charge 0 multiplicity 1
 O         4.287458         2.934139        -2.558184
 C         3.108113         2.336236        -2.358830
 C         2.070222         2.340410        -3.460198
 C         2.604230         1.051054        -3.078838
 C         1.793943         0.241378        -2.103069
 C         1.396046         1.353680        -1.008775
 C         2.513140         2.447558        -0.937919
 C         1.361802         0.570614         0.314893
 O         0.389727         0.125991         0.907590
 H         4.344924         3.859302        -2.876331
 H         1.043608         2.690248        -3.221858
 H         2.477882         2.956608        -4.296425
 H         3.210217         0.473670        -3.682536
 H         0.938313        -0.107727        -2.724709
 H         2.207951        -0.672128        -1.721803
 H         0.463063         1.764282        -1.063566
 H         2.107657         3.468296        -0.654175
 H         3.348806         2.196065        -0.093383
 H         2.368731         0.314811         0.666798
