19
Iteration:  4788charge 0 multiplicity 1
 O         4.269255         2.966074        -2.453761
 C         3.013225         2.471914        -2.386116
 C         2.065581         2.395036        -3.622047
 C         2.711419         1.099692        -3.146022
 C         1.925743         0.157167        -2.177350
 C         1.387805         1.076016        -1.050386
 C         2.441197         2.257766        -0.939403
 C         1.268898         0.382502         0.307812
 O         0.434964         0.558564         1.161276
 H         4.067491         3.912782        -2.427016
 H         0.978502         2.667671        -3.640263
 H         2.609101         2.818523        -4.481112
 H         3.301060         0.559244        -3.875441
 H         0.969592        -0.151956        -2.582310
 H         2.751750        -0.593848        -2.026753
 H         0.391339         1.452175        -1.329689
 H         1.863550         3.146422        -0.620960
 H         3.336766         2.064002        -0.302360
 H         2.213557        -0.336867         0.470869
