19
Iteration:   808charge 0 multiplicity 1
 O         4.357179         2.946828        -2.482358
 C         2.977308         2.360966        -2.424878
 C         2.029374         2.636531        -3.506781
 C         2.528602         1.169003        -3.126180
 C         1.740330         0.275954        -2.129626
 C         1.465570         1.184448        -0.925545
 C         2.573606         2.232887        -0.929922
 C         1.395115         0.293378         0.288230
 O         0.424064         0.305165         0.968082
 H         4.314095         3.942653        -2.604967
 H         0.997051         3.047730        -3.355523
 H         2.473196         2.849634        -4.503120
 H         3.075214         0.657388        -3.965392
 H         0.765939        -0.153115        -2.558547
 H         2.330112        -0.655941        -1.902698
 H         0.444985         1.762018        -1.070671
 H         2.309178         3.249903        -0.456556
 H         3.373923         1.616386        -0.409667
 H         2.415242        -0.181340         0.448693
