19
Iteration:  3131charge 0 multiplicity 1
 O         4.304064         2.872006        -2.377756
 C         2.974062         2.405373        -2.373590
 C         2.103682         2.496721        -3.636267
 C         2.665301         1.203847        -3.124969
 C         1.995864         0.185625        -2.281973
 C         1.276827         1.008124        -1.035642
 C         2.240916         2.248076        -0.980403
 C         1.287824         0.267687         0.241202
 O         0.610816         0.674574         1.216178
 H         4.194422         3.812754        -2.412472
 H         1.030301         2.701431        -3.455583
 H         2.551560         2.792323        -4.604435
 H         3.532975         0.920251        -3.659334
 H         1.239772        -0.221370        -2.992351
 H         2.686693        -0.582054        -2.011722
 H         0.264035         1.394316        -1.122344
 H         1.661876         3.034315        -0.556846
 H         3.163716         2.137733        -0.377704
 H         2.023587        -0.506257         0.422452
