19
Iteration:   535
 O         4.355415         2.651163        -2.472700
 C         2.952499         2.447859        -2.409415
 C         1.945051         2.503329        -3.509893
 C         2.463915         1.174412        -3.089248
 C         1.805375         0.276321        -2.076859
 C         1.453428         1.340010        -0.891908
 C         2.439014         2.481053        -0.936790
 C         1.488943         0.564634         0.263386
 O         0.537447         0.075038         0.771810
 H         4.766951         3.206932        -1.753688
 H         0.848266         2.885978        -3.304460
 H         2.269293         2.907101        -4.511806
 H         3.363063         0.829390        -3.564603
 H         0.854857        -0.127388        -2.424646
 H         2.447032        -0.581720        -1.870190
 H         0.390516         1.717746        -0.977036
 H         1.938569         3.445865        -0.716293
 H         3.274112         2.268892        -0.218668
 H         2.501095         0.368445         0.686171
