19
Iteration:  2616
 O         4.359214         2.886869        -2.578963
 C         2.982540         2.351881        -2.390517
 C         2.008078         2.568934        -3.529999
 C         2.620643         1.116770        -3.210197
 C         1.924441         0.224705        -2.172605
 C         1.432056         1.117873        -1.015259
 C         2.591996         2.335380        -0.904670
 C         1.350143         0.528965         0.466756
 O         0.244265         0.260325         1.017721
 H         4.158297         3.780896        -2.953965
 H         1.037459         2.968845        -3.309075
 H         2.437636         2.953795        -4.487786
 H         3.362394         0.865537        -3.960208
 H         0.967249        -0.427148        -2.505503
 H         2.552465        -0.474459        -1.567847
 H         0.424281         1.543309        -1.236940
 H         2.223182         3.236341        -0.435749
 H         3.455176         1.911438        -0.242254
 H         2.319385         0.351832         1.087691
