19
Iteration:  2657
 O         4.369293         2.873149        -2.638179
 C         3.083536         2.398498        -2.431735
 C         1.972266         2.485094        -3.540448
 C         2.597869         1.131914        -3.096490
 C         1.838204         0.258299        -2.060413
 C         1.414057         1.219516        -0.906782
 C         2.563387         2.359077        -0.937256
 C         1.364188         0.548476         0.430092
 O         0.281852         0.152055         0.902140
 H         4.556582         3.761823        -2.351279
 H         0.984131         2.737395        -3.294553
 H         2.484103         2.981861        -4.397209
 H         3.352618         0.543991        -3.695360
 H         0.985687        -0.247591        -2.654982
 H         2.443940        -0.692357        -1.990514
 H         0.400795         1.648334        -1.050879
 H         2.185004         3.364926        -0.640419
 H         3.435478         2.195024        -0.381900
 H         2.262838         0.490115         1.076491
