19
Iteration:  2145charge 0 multiplicity 1
 O         4.325631         2.952185        -2.715558
 C         2.969115         2.407269        -2.385068
 C         1.915227         2.540483        -3.464039
 C         2.659861         1.167733        -3.047871
 C         1.927404         0.234258        -2.115744
 C         1.474343         1.220415        -0.944372
 C         2.579090         2.287603        -0.892109
 C         1.333558         0.478342         0.380287
 O         0.274977         0.225451         0.873096
 H         4.941158         2.634471        -2.053915
 H         0.928640         2.923274        -2.990073
 H         2.318957         2.996884        -4.335172
 H         3.311877         0.624515        -3.776645
 H         1.142834        -0.395476        -2.520192
 H         2.444795        -0.641369        -1.662598
 H         0.482956         1.747637        -1.194731
 H         2.240218         3.248010        -0.525180
 H         3.460915         1.830907        -0.277879
 H         2.322026         0.166891         0.761909
