19
Iteration:  1088
 O         4.311570         3.041831        -2.460877
 C         3.082096         2.349159        -2.432076
 C         1.992130         2.561124        -3.394236
 C         2.388159         1.181692        -3.161680
 C         1.779321         0.190006        -2.195661
 C         1.566366         1.268613        -0.802743
 C         2.720536         2.289829        -0.964134
 C         1.404745         0.339789         0.340972
 O         0.274414         0.229211         0.860021
 H         4.399837         3.521706        -3.322684
 H         1.090890         3.075383        -3.105718
 H         2.233809         2.716545        -4.422452
 H         3.082421         0.667577        -3.834789
 H         0.911684        -0.223846        -2.573527
 H         2.442957        -0.684701        -1.978133
 H         0.576535         1.644650        -1.001466
 H         2.378147         3.254541        -0.624597
 H         3.658244         1.960440        -0.443613
 H         2.161183        -0.421619         0.573299
