19
Iteration:   599charge 0 multiplicity 1
 O         4.343284         2.901456        -2.618721
 C         3.007316         2.474348        -2.363305
 C         2.169681         2.528095        -3.543570
 C         2.601493         1.204973        -3.087232
 C         1.733119         0.381537        -2.194369
 C         1.281579         1.278852        -0.923140
 C         2.551123         2.250004        -0.900852
 C         1.306590         0.386927         0.304865
 O         0.472932         0.087418         1.109947
 H         4.151927         3.514410        -3.345547
 H         1.139856         2.891775        -3.543745
 H         2.701279         2.872839        -4.424515
 H         3.346039         0.698704        -3.682293
 H         0.810579        -0.037165        -2.716475
 H         2.334490        -0.495303        -1.898324
 H         0.255768         1.759623        -1.090366
 H         2.207029         3.163140        -0.385515
 H         3.300283         1.712454        -0.367822
 H         2.399651         0.042099         0.427598
