19
Iteration:  3369
 O         4.326652         2.901348        -2.675826
 C         3.034572         2.492576        -2.429436
 C         2.102442         2.420839        -3.588556
 C         2.563770         1.127041        -2.988902
 C         1.826550         0.233167        -2.020334
 C         1.454103         1.332650        -0.842412
 C         2.562032         2.418045        -0.979215
 C         1.336802         0.377456         0.396519
 O         0.270732         0.104856         0.909134
 H         4.565968         3.818154        -2.739310
 H         1.089368         2.775548        -3.792207
 H         2.724908         2.587558        -4.468200
 H         3.356211         0.812163        -3.622809
 H         0.824860        -0.025124        -2.296861
 H         2.536241        -0.592522        -1.859219
 H         0.506112         1.909745        -1.122383
 H         2.079177         3.464400        -0.656025
 H         3.428881         2.265327        -0.272172
 H         2.275567         0.059143         0.854407
