19
Iteration:  3351
 O         4.373458         2.975907        -2.667775
 C         3.032980         2.390011        -2.455837
 C         2.145145         2.491488        -3.704253
 C         2.638267         1.106208        -3.107489
 C         1.788979         0.327106        -2.035373
 C         1.482722         1.223768        -0.849703
 C         2.574481         2.444235        -0.963179
 C         1.272624         0.392432         0.522604
 O         0.200848         0.079992         1.004888
 H         4.149354         3.903024        -2.800267
 H         1.096204         2.658157        -3.425164
 H         2.520304         2.881522        -4.606406
 H         3.360266         0.450040        -3.830773
 H         0.885165        -0.163009        -2.515583
 H         2.466697        -0.411978        -1.559382
 H         0.527749         1.644422        -1.005712
 H         2.281063         3.410145        -0.586656
 H         3.511915         2.316041        -0.436196
 H         2.300366        -0.086725         0.822540
