19
Iteration:  4163
 O         4.303447         2.850397        -2.553806
 C         3.015228         2.448387        -2.391671
 C         2.103146         2.428404        -3.629330
 C         2.701457         1.128243        -3.024173
 C         1.780873         0.235762        -2.113760
 C         1.344619         1.240731        -0.965891
 C         2.379262         2.417218        -0.985468
 C         1.424119         0.471830         0.361313
 O         0.422029         0.261146         1.003614
 H         4.349915         3.733919        -2.204610
 H         1.034293         2.608791        -3.551770
 H         2.662679         2.608035        -4.478198
 H         3.476788         0.598337        -3.663061
 H         0.999670        -0.125894        -2.807500
 H         2.388414        -0.654552        -1.620665
 H         0.248421         1.478133        -1.098323
 H         2.051326         3.436713        -0.650042
 H         3.299619         2.115323        -0.350038
 H         2.410671        -0.024733         0.547702
