19
Iteration:  4052charge 0 multiplicity 1
 O         4.306538         2.865665        -2.591353
 C         3.028532         2.404901        -2.409366
 C         1.990630         2.439299        -3.484290
 C         2.628597         1.095633        -2.966230
 C         1.855988         0.208096        -1.985032
 C         1.488380         1.283821        -0.969543
 C         2.520150         2.424121        -1.005870
 C         1.346301         0.541832         0.316665
 O         0.326487         0.191781         0.822494
 H         4.380668         3.812371        -2.280322
 H         0.980217         2.547190        -3.222282
 H         2.086088         2.692467        -4.551554
 H         3.300603         0.538524        -3.578682
 H         1.240111        -0.423331        -2.572204
 H         2.642336        -0.479781        -1.614974
 H         0.503836         1.804884        -1.129654
 H         2.157938         3.454028        -0.689380
 H         3.482490         2.052163        -0.484858
 H         2.305762         0.311023         0.795173
