19
Iteration:  4404
 O         4.292891         2.903704        -2.508917
 C         2.996692         2.451526        -2.429201
 C         2.056084         2.427052        -3.664324
 C         2.710505         1.165534        -3.141301
 C         1.874507         0.245634        -2.192107
 C         1.431022         1.166446        -0.913672
 C         2.492019         2.287122        -0.957669
 C         1.327081         0.330313         0.402621
 O         0.315077         0.425952         1.075282
 H         4.281351         3.890329        -2.512289
 H         1.064535         2.674162        -3.339756
 H         2.378646         2.824185        -4.590797
 H         3.527883         0.837675        -3.834524
 H         1.047219        -0.374649        -2.534491
 H         2.662976        -0.456519        -1.782899
 H         0.366390         1.522029        -1.175703
 H         2.109645         3.116457        -0.359967
 H         3.422847         1.952539        -0.503184
 H         2.266766        -0.135869         0.654696
