19
Iteration:  2851charge 0 multiplicity 1
 O         4.407123         2.881014        -2.628034
 C         3.053930         2.389295        -2.432054
 C         2.115223         2.471798        -3.638226
 C         2.585946         1.103870        -3.052325
 C         1.771655         0.345135        -2.061259
 C         1.393357         1.383644        -0.816605
 C         2.556149         2.521485        -1.010874
 C         1.360070         0.417417         0.589352
 O         0.256066        -0.065257         0.861982
 H         4.290679         3.569638        -3.275964
 H         1.106489         2.927116        -3.453988
 H         2.720692         2.695094        -4.516136
 H         3.107231         0.380119        -3.625311
 H         0.868247         0.000555        -2.411007
 H         2.367464        -0.449302        -1.608718
 H         0.466487         1.904296        -1.049683
 H         2.125836         3.532650        -1.016298
 H         3.467005         2.682344        -0.446851
 H         2.346223         0.103846         1.057414
