19
Iteration:  4965
 O         4.291737         2.909741        -2.534092
 C         3.002815         2.318200        -2.334894
 C         2.022693         2.387624        -3.456173
 C         2.762018         1.058813        -3.005699
 C         1.837115         0.248889        -2.126621
 C         1.347217         1.171759        -1.016876
 C         2.399798         2.408604        -1.010209
 C         1.414319         0.519542         0.276789
 O         0.430578         0.384277         0.943444
 H         4.196861         3.859193        -2.796408
 H         0.911198         2.538609        -3.248606
 H         2.352991         2.698484        -4.463220
 H         3.537703         0.596089        -3.655893
 H         1.211831        -0.287611        -2.785318
 H         2.464802        -0.703407        -1.776320
 H         0.354714         1.501021        -1.124683
 H         2.002008         3.356519        -0.793192
 H         3.131547         2.253238        -0.233200
 H         2.364198         0.129590         0.745247
