19
Iteration:  2525charge 0 multiplicity 1
 O         4.321975         3.022445        -2.557746
 C         3.008199         2.421962        -2.377884
 C         2.171121         2.504184        -3.595806
 C         2.570890         1.159242        -3.199335
 C         1.874186         0.172883        -2.217824
 C         1.358627         1.023750        -0.976714
 C         2.481191         2.149948        -0.951573
 C         1.360111         0.456931         0.423410
 O         0.333651         0.455283         1.150492
 H         4.225556         3.976024        -2.622691
 H         1.168374         3.015489        -3.543819
 H         2.696008         2.781202        -4.483306
 H         3.402439         0.719586        -3.740905
 H         0.892219        -0.313599        -2.698004
 H         2.575303        -0.698641        -1.925705
 H         0.346604         1.432517        -1.002542
 H         2.238434         3.149863        -0.510495
 H         3.462087         1.884995        -0.518218
 H         2.122439        -0.246275         0.648899
