19
Iteration:  4950
 O         4.338938         2.957680        -2.528017
 C         3.061783         2.393822        -2.341412
 C         2.078892         2.269504        -3.548970
 C         2.700684         1.092917        -3.081976
 C         1.833406         0.203058        -2.148448
 C         1.418245         1.247017        -1.024843
 C         2.331906         2.382489        -0.959192
 C         1.394451         0.449508         0.285304
 O         0.414885         0.374788         1.034454
 H         4.167873         3.872582        -2.655767
 H         1.055471         2.423151        -3.301224
 H         2.385107         2.801749        -4.463227
 H         3.407509         0.485628        -3.719793
 H         0.741952         0.082248        -2.547109
 H         2.428562        -0.550712        -1.573575
 H         0.321322         1.562318        -1.122935
 H         1.692908         3.333684        -0.840513
 H         3.068200         2.310324        -0.122230
 H         2.360888        -0.094448         0.411719
