19
Iteration:  1586charge 0 multiplicity 1
 O         4.426829         2.942159        -2.666699
 C         3.142109         2.388197        -2.378249
 C         2.114066         2.684484        -3.499251
 C         2.536522         1.231382        -3.061874
 C         1.525740         0.381774        -2.123336
 C         1.421001         1.261646        -0.889046
 C         2.594536         2.265584        -0.944459
 C         1.382609         0.339109         0.360705
 O         0.368988        -0.038775         0.984827
 H         4.559983         3.319078        -3.525313
 H         1.139355         2.955438        -3.250963
 H         2.331483         2.972291        -4.490186
 H         3.155498         0.761815        -3.839612
 H         0.519908         0.232437        -2.476725
 H         2.069028        -0.635478        -1.892543
 H         0.436332         1.803907        -0.855521
 H         2.233100         3.250012        -0.685341
 H         3.408095         2.258816        -0.138735
 H         2.335249        -0.004025         0.824907
