19
Iteration:   561charge 0 multiplicity 1
 O         4.381477         2.816041        -2.465888
 C         3.077374         2.384970        -2.420638
 C         2.012519         2.509893        -3.468421
 C         2.503332         1.154376        -3.154808
 C         1.707524         0.321117        -2.190755
 C         1.419639         1.253681        -0.871129
 C         2.428471         2.415740        -1.076151
 C         1.473495         0.526137         0.383200
 O         0.473001         0.067401         0.911777
 H         4.740762         3.571264        -1.917137
 H         0.955419         2.817297        -3.137561
 H         2.268729         3.011327        -4.413910
 H         3.065187         0.618234        -3.940985
 H         0.764607         0.006043        -2.676221
 H         2.325860        -0.695233        -1.944699
 H         0.396059         1.627709        -0.851027
 H         2.023444         3.432449        -0.916026
 H         3.372673         2.298071        -0.325239
 H         2.466965         0.379970         0.900985
