19
Iteration:  1807charge 0 multiplicity 1
 O         4.314531         2.804281        -2.582714
 C         2.988336         2.432065        -2.391104
 C         1.949409         2.690847        -3.496407
 C         2.553607         1.265494        -3.209943
 C         1.912257         0.299764        -2.309935
 C         1.514488         1.134294        -0.972642
 C         2.633144         2.181612        -0.855384
 C         1.318104         0.300847         0.402632
 O         0.295851         0.312923         1.080544
 H         4.377591         3.757920        -2.583335
 H         0.925659         3.109114        -3.140137
 H         2.463469         3.191405        -4.313961
 H         3.259816         0.993779        -3.942072
 H         1.027758        -0.204333        -2.762701
 H         2.622681        -0.494035        -1.929507
 H         0.561545         1.628703        -1.201975
 H         2.335667         2.996291        -0.202316
 H         3.466904         1.524160        -0.371281
 H         2.270064        -0.036476         0.807098
