19
Iteration:   754
 O         4.319032         3.056211        -2.675626
 C         3.103793         2.353331        -2.339156
 C         2.051010         2.561149        -3.302397
 C         2.619874         1.202214        -3.180626
 C         1.757259         0.255245        -2.276405
 C         1.446150         1.111864        -1.000016
 C         2.593399         2.147423        -0.953827
 C         1.304962         0.326042         0.329856
 O         0.352319         0.359386         1.081566
 H         4.223593         3.964551        -2.262102
 H         1.001646         2.599673        -2.892784
 H         2.380189         3.143602        -4.208643
 H         3.100308         0.663848        -4.025881
 H         0.824182        -0.148648        -2.741443
 H         2.455783        -0.574698        -2.069458
 H         0.463604         1.729695        -1.144658
 H         2.328428         3.126965        -0.454737
 H         3.343350         1.763954        -0.265212
 H         2.137683        -0.396236         0.570036
