19
Iteration:  1850charge 0 multiplicity 1
 O         4.290826         3.001232        -2.560107
 C         3.091877         2.359849        -2.327166
 C         1.971030         2.501060        -3.270380
 C         2.558335         1.140717        -3.138193
 C         1.776475         0.267202        -2.247524
 C         1.412572         1.153469        -1.038141
 C         2.599593         2.246452        -0.935665
 C         1.343291         0.378849         0.154206
 O         0.443429         0.387170         0.998445
 H         4.782929         2.792827        -1.727382
 H         1.086869         2.952689        -2.648516
 H         2.041639         2.901545        -4.311592
 H         3.052617         0.849863        -4.014110
 H         0.824105        -0.056714        -2.693585
 H         2.435392        -0.587273        -1.886230
 H         0.468582         1.733348        -1.224096
 H         2.263148         3.182484        -0.507591
 H         3.536386         1.900632        -0.388971
 H         2.237517        -0.441383         0.349678
