19
Iteration:   694
 O         4.309200         2.832354        -2.498955
 C         2.956144         2.472066        -2.325024
 C         1.887056         2.640071        -3.466460
 C         2.571177         1.330194        -3.223825
 C         1.996236         0.206264        -2.258889
 C         1.406942         1.093474        -1.036596
 C         2.644607         2.106151        -0.825430
 C         1.281545         0.400197         0.314427
 O         0.373417         0.392857         1.089565
 H         4.305120         3.268994        -3.394985
 H         0.907012         2.627104        -3.227802
 H         2.075580         3.389832        -4.168643
 H         3.328421         0.984714        -3.918901
 H         1.219169        -0.464632        -2.675496
 H         2.891325        -0.470906        -2.153669
 H         0.527515         1.626384        -1.247653
 H         2.505557         3.023926        -0.300645
 H         3.613921         1.563978        -0.668859
 H         2.288031        -0.123962         0.512827
