19
Iteration:   129
 O         4.256041         3.071676        -2.419103
 C         3.030684         2.391830        -2.334293
 C         2.148362         2.332539        -3.618606
 C         2.695221         1.059061        -2.967464
 C         1.696249         0.290551        -2.216961
 C         1.178085         1.267133        -1.123027
 C         2.275260         2.324870        -1.007177
 C         1.334334         0.330918         0.116037
 O         0.790819         0.353206         1.196164
 H         4.686714         3.164969        -1.512979
 H         1.142555         2.664018        -3.607761
 H         2.874439         2.512948        -4.421621
 H         3.468521         0.646598        -3.559578
 H         0.924282         0.147964        -3.018674
 H         1.986793        -0.687914        -1.760888
 H         0.197621         1.882325        -1.351222
 H         1.851952         3.323082        -0.723285
 H         3.054859         1.995023        -0.261134
 H         2.285954        -0.395957        -0.057625
