19
Iteration:  2223
 O         4.275302         3.004597        -2.601538
 C         2.961630         2.458022        -2.390940
 C         2.003927         2.429781        -3.637660
 C         2.561911         1.202242        -3.058815
 C         1.895259         0.226460        -2.043656
 C         1.525124         1.186316        -0.833183
 C         2.673102         2.249927        -0.868041
 C         1.322132         0.395124         0.381707
 O         0.235190         0.306234         0.857006
 H         4.687327         3.177336        -3.454968
 H         0.971471         2.644601        -3.552503
 H         2.475165         2.830142        -4.590892
 H         3.360499         0.677550        -3.556655
 H         1.022474        -0.112904        -2.430698
 H         2.560640        -0.564441        -1.721281
 H         0.575224         1.714621        -1.083709
 H         2.481292         3.123624        -0.282924
 H         3.558481         1.786213        -0.385658
 H         2.325501        -0.012270         0.711941
