19
Iteration:  3906
 O         4.271144         2.907445        -2.514316
 C         3.037879         2.357652        -2.409267
 C         2.039377         2.472030        -3.558447
 C         2.704596         1.073035        -3.119964
 C         1.875802         0.258035        -2.139138
 C         1.458027         1.194744        -0.987072
 C         2.473222         2.299888        -0.933004
 C         1.326491         0.567935         0.355552
 O         0.334132         0.266463         1.010479
 H         4.204321         3.586158        -3.197636
 H         0.958267         2.659217        -3.293709
 H         2.354491         3.024338        -4.481871
 H         3.691819         0.780058        -3.597324
 H         0.909653        -0.123854        -2.490147
 H         2.446520        -0.559554        -1.658447
 H         0.596970         1.680987        -1.328437
 H         1.872687         3.135913        -0.445980
 H         3.455272         2.109949        -0.392058
 H         2.353493         0.245637         0.778031
