19
Iteration:  3172
 O         4.206326         3.051260        -2.264119
 C         3.014885         2.299108        -2.331125
 C         2.095910         2.487104        -3.530001
 C         2.697994         1.129887        -3.250033
 C         1.837334         0.178748        -2.360059
 C         1.346416         0.942215        -1.095467
 C         2.434897         2.114293        -0.957498
 C         1.382772         0.379324         0.297817
 O         0.544046         0.744148         1.164780
 H         3.953551         3.928025        -2.690975
 H         0.982310         2.687837        -3.495181
 H         2.543309         2.541174        -4.534028
 H         3.435265         0.844796        -3.907080
 H         0.886064        -0.159628        -2.787351
 H         2.306048        -0.800631        -2.081374
 H         0.294805         1.280172        -1.458449
 H         1.982337         3.132649        -0.682866
 H         3.120189         1.757304        -0.269585
 H         2.289870        -0.284582         0.562356
