19
Iteration:  3956
 O         4.293392         2.966882        -2.578157
 C         3.106535         2.379957        -2.424403
 C         2.005698         2.447586        -3.460773
 C         2.618983         1.047427        -3.084704
 C         1.941496         0.222679        -2.035995
 C         1.484090         1.317290        -0.907855
 C         2.558527         2.374319        -0.957911
 C         1.305640         0.468416         0.360910
 O         0.255014         0.234140         0.888905
 H         4.128538         3.612256        -3.339090
 H         0.980846         2.623392        -3.402452
 H         2.454270         2.833192        -4.403998
 H         3.128439         0.486098        -3.905766
 H         0.967878        -0.213970        -2.363086
 H         2.589707        -0.582684        -1.696297
 H         0.386663         1.564973        -1.094089
 H         2.203418         3.328828        -0.637353
 H         3.438093         2.098972        -0.405414
 H         2.210299        -0.051966         0.739367
