19
Iteration:  4486charge 0 multiplicity 1
 O         4.336692         2.853160        -2.476263
 C         3.017167         2.463965        -2.441093
 C         2.079328         2.420272        -3.662862
 C         2.588656         1.090369        -3.107260
 C         1.800367         0.279839        -2.165162
 C         1.376612         1.200787        -0.931350
 C         2.515849         2.439648        -0.984059
 C         1.381731         0.533906         0.442992
 O         0.358748         0.176274         1.023125
 H         4.475222         3.785523        -2.793517
 H         1.024137         2.669252        -3.738222
 H         2.716976         2.755602        -4.602237
 H         3.394087         0.560087        -3.574499
 H         0.895972        -0.284110        -2.560092
 H         2.584447        -0.495634        -1.834400
 H         0.385693         1.532103        -1.251987
 H         1.973921         3.295786        -0.529172
 H         3.411132         2.189200        -0.373412
 H         2.405824         0.375958         1.029828
