19
Iteration:  1425charge 0 multiplicity 1
 O         4.331413         3.020866        -2.633217
 C         3.079043         2.349289        -2.331540
 C         1.957205         2.582569        -3.416758
 C         2.587841         1.275347        -3.225209
 C         1.764978         0.277265        -2.178303
 C         1.392771         1.215041        -1.060283
 C         2.656798         2.055755        -0.903520
 C         1.285290         0.381216         0.264238
 O         0.425395         0.262573         1.097024
 H         4.636344         3.388622        -1.753985
 H         0.859741         2.664068        -3.108321
 H         2.326343         3.346646        -4.171999
 H         3.096787         0.682609        -3.967337
 H         0.768742        -0.052973        -2.589568
 H         2.321117        -0.485044        -1.822586
 H         0.461822         1.693162        -1.112669
 H         2.465612         2.976632        -0.384818
 H         3.513257         1.689336        -0.442156
 H         2.269970        -0.068065         0.474837
