19
Iteration:  4493charge 0 multiplicity 1
 O         4.360753         2.845088        -2.469821
 C         3.002271         2.441476        -2.414121
 C         2.095257         2.416577        -3.709580
 C         2.576808         1.146358        -3.135336
 C         1.789339         0.321421        -2.091518
 C         1.383856         1.160919        -0.909327
 C         2.461972         2.423779        -1.015674
 C         1.403328         0.524357         0.495303
 O         0.361556         0.175187         0.985914
 H         4.466021         3.766957        -2.819063
 H         0.981390         2.507070        -3.796772
 H         2.743990         2.778351        -4.518437
 H         3.432942         0.636955        -3.868033
 H         1.001042        -0.358565        -2.416089
 H         2.610693        -0.402208        -1.884719
 H         0.392963         1.727218        -1.149285
 H         2.155403         3.405836        -0.705663
 H         3.332554         2.111742        -0.426568
 H         2.282563         0.283103         1.028586
