19
Iteration:  2981
 O         4.310404         2.983687        -2.480288
 C         3.014823         2.354166        -2.333958
 C         1.939903         2.433255        -3.465566
 C         2.644135         1.174666        -3.172341
 C         1.995233         0.187556        -2.115076
 C         1.431443         1.129017        -1.100649
 C         2.514395         2.273766        -0.884142
 C         1.300934         0.379362         0.241368
 O         0.345731         0.507581         1.034350
 H         4.407242         3.333758        -3.365531
 H         0.984981         2.650241        -2.999604
 H         2.037441         3.062435        -4.319702
 H         3.293580         0.737170        -3.854028
 H         1.399969        -0.478880        -2.733753
 H         2.793014        -0.476521        -1.657122
 H         0.495609         1.530367        -1.349360
 H         2.109789         3.142679        -0.489293
 H         3.308334         1.897129        -0.246456
 H         2.094322        -0.423193         0.453231
