19
Iteration:   258charge 0 multiplicity 1
 O         4.271615         3.004597        -2.348189
 C         2.993480         2.420248        -2.341831
 C         2.015887         2.454230        -3.628739
 C         2.668987         1.187222        -3.099791
 C         1.837251         0.280420        -2.265132
 C         1.361407         1.048925        -1.031178
 C         2.466532         2.291567        -0.962756
 C         1.332234         0.277058         0.224717
 O         0.556318         0.483203         1.166368
 H         4.799838         2.559675        -3.025771
 H         0.933549         2.664778        -3.507389
 H         2.270953         3.078772        -4.517159
 H         3.413352         0.751779        -3.758384
 H         0.890659        -0.022230        -2.804277
 H         2.340594        -0.670725        -2.069104
 H         0.317448         1.383566        -1.218689
 H         1.882225         3.227603        -0.701364
 H         3.171950         2.177435        -0.131631
 H         2.143921        -0.452657         0.248859
