19
Iteration:   261charge 0 multiplicity 1
 O         4.247045         3.002898        -2.371927
 C         2.980469         2.426235        -2.345387
 C         2.016165         2.461829        -3.633562
 C         2.688069         1.200480        -3.094884
 C         1.825668         0.298391        -2.265160
 C         1.386121         1.041848        -1.007410
 C         2.465591         2.274763        -0.965077
 C         1.322552         0.256579         0.226798
 O         0.543327         0.493060         1.155474
 H         4.823450         2.552980        -3.049119
 H         1.032129         2.617603        -3.455289
 H         2.365009         3.057774        -4.400542
 H         3.501594         0.689483        -3.667933
 H         0.853899         0.030476        -2.773741
 H         2.336486        -0.706506        -2.116689
 H         0.323743         1.405651        -1.214518
 H         1.986078         3.226759        -0.706365
 H         3.175741         2.202844        -0.107558
 H         2.257008        -0.514001         0.317923
