19
Iteration:  1540charge 0 multiplicity 1
 O         4.354728         2.882461        -2.384389
 C         2.966666         2.411648        -2.387339
 C         1.853388         2.632206        -3.423753
 C         2.515432         1.105937        -3.093171
 C         1.656779         0.402519        -2.117792
 C         1.485611         1.279467        -0.975852
 C         2.672714         2.198964        -0.977501
 C         1.436257         0.423697         0.208693
 O         0.464217         0.166910         0.874575
 H         4.724518         2.811756        -3.299622
 H         0.887947         2.975542        -3.116596
 H         2.181439         3.123389        -4.257993
 H         3.154155         0.637796        -3.801488
 H         0.909246         0.016993        -2.742899
 H         2.362262        -0.450103        -1.728933
 H         0.488084         1.827897        -1.233489
 H         2.578241         3.021747        -0.229081
 H         3.547160         1.712688        -0.383628
 H         2.533794         0.083936         0.487602
