19
Iteration:  1468charge 0 multiplicity 1
 O         4.409052         2.871700        -2.602882
 C         3.040941         2.454213        -2.393583
 C         1.884469         2.652616        -3.433363
 C         2.506919         1.218823        -3.093812
 C         1.778587         0.302854        -2.198058
 C         1.488919         1.098136        -0.930175
 C         2.628435         2.210404        -0.854618
 C         1.423695         0.275105         0.256299
 O         0.346854         0.319336         0.964376
 H         4.413849         3.890361        -2.548141
 H         0.871509         2.875983        -2.996362
 H         2.268632         3.227486        -4.365482
 H         3.077978         0.727166        -3.883996
 H         0.797065        -0.106746        -2.636859
 H         2.378991        -0.545522        -2.030414
 H         0.596050         1.645154        -1.053009
 H         2.242052         3.098177        -0.359920
 H         3.421167         1.945902        -0.199847
 H         2.332624        -0.357913         0.387846
