19
Iteration:   246charge 0 multiplicity 1
 O         4.348498         3.008268        -2.275461
 C         3.027077         2.400542        -2.384297
 C         2.002791         2.498874        -3.534718
 C         2.625863         1.152073        -3.191664
 C         1.823516         0.173275        -2.284324
 C         1.327247         1.146953        -1.124523
 C         2.308868         2.324398        -0.956787
 C         1.349655         0.356832         0.229696
 O         0.620786         0.444280         1.192488
 H         4.885308         2.658368        -2.995525
 H         0.880315         2.593259        -3.274449
 H         2.476266         2.640936        -4.562782
 H         3.233874         0.737509        -3.975326
 H         1.079790        -0.390569        -2.893611
 H         2.507921        -0.496474        -1.776543
 H         0.361680         1.628662        -1.247631
 H         1.771683         3.223454        -0.508254
 H         3.188845         2.040990        -0.390059
 H         2.046498        -0.490083         0.261206
