19
Iteration:  2047charge 0 multiplicity 1
 O         4.299736         2.941740        -2.403086
 C         3.019843         2.384953        -2.368954
 C         2.070782         2.437902        -3.510289
 C         2.629383         1.112412        -3.049590
 C         1.704183         0.336219        -2.230530
 C         1.354026         1.284366        -1.040295
 C         2.499966         2.362142        -1.008820
 C         1.407686         0.429925         0.270927
 O         0.492465         0.198892         1.049822
 H         4.629727         2.749844        -3.293042
 H         1.047807         2.810679        -3.180637
 H         2.507207         3.051171        -4.362781
 H         3.395630         0.497500        -3.571130
 H         0.802664         0.133802        -2.766531
 H         2.068692        -0.649038        -2.007981
 H         0.325070         1.779888        -1.059975
 H         2.050416         3.248986        -0.576900
 H         3.403171         1.940385        -0.413182
 H         2.381037         0.019093         0.476740
