19
Iteration:   108
 O         4.180737         3.061547        -2.352651
 C         2.952689         2.414872        -2.349350
 C         2.222522         2.350602        -3.658377
 C         2.772837         1.034840        -3.097292
 C         1.650606         0.308574        -2.335260
 C         1.217801         1.223356        -1.057988
 C         2.302007         2.323355        -0.923787
 C         1.481572         0.394777         0.220402
 O         0.685923         0.383350         1.159279
 H         4.766544         2.329134        -2.082570
 H         1.189983         2.205984        -3.555374
 H         2.497225         3.038157        -4.469931
 H         3.636691         0.509241        -3.463427
 H         0.810732         0.052539        -2.997809
 H         2.065432        -0.581865        -1.851766
 H         0.104032         1.589037        -1.026133
 H         1.886417         3.291597        -0.626175
 H         3.129932         1.995013        -0.283819
 H         2.365337        -0.130681         0.210610
