19
Iteration:  2436charge 0 multiplicity 1
 O         4.303545         3.013764        -2.381474
 C         3.016490         2.357152        -2.431934
 C         2.192120         2.567432        -3.610643
 C         2.656070         1.100544        -3.241663
 C         1.785876         0.289371        -2.187058
 C         1.375012         1.066530        -0.943393
 C         2.389643         2.275029        -1.103592
 C         1.270680         0.351098         0.396563
 O         0.461054         0.399802         1.261177
 H         4.536515         2.908876        -3.306092
 H         1.132871         2.669711        -3.798207
 H         2.708565         3.111258        -4.511313
 H         3.163937         0.495308        -3.966675
 H         0.996062        -0.189797        -2.864669
 H         2.518169        -0.532609        -1.901428
 H         0.446301         1.576482        -1.216298
 H         1.960451         3.296558        -0.795981
 H         3.229601         2.179685        -0.358592
 H         2.356806        -0.204969         0.460434
