19
Iteration:   942charge 0 multiplicity 1
 O         4.334024         2.791437        -2.722618
 C         3.086398         2.373467        -2.302708
 C         2.070652         2.557969        -3.413163
 C         2.628597         1.200946        -3.031466
 C         1.658333         0.389942        -2.212228
 C         1.396623         1.283904        -0.900391
 C         2.461457         2.338173        -0.905735
 C         1.371415         0.438623         0.298607
 O         0.471330         0.041756         0.926812
 H         4.494750         3.750120        -2.549171
 H         1.040975         2.786247        -3.181348
 H         2.550387         3.046120        -4.329848
 H         3.425462         0.767421        -3.603044
 H         0.714477         0.327741        -2.741871
 H         2.111961        -0.645334        -2.100336
 H         0.479862         1.926370        -1.032585
 H         2.035173         3.267150        -0.396376
 H         3.292077         2.040338        -0.134158
 H         2.405172         0.394700         0.731832
