19
Iteration:  1331charge 0 multiplicity 1
 O         4.352177         3.019380        -2.552257
 C         3.103117         2.388274        -2.327602
 C         2.044102         2.581137        -3.397541
 C         2.577862         1.205029        -3.177505
 C         1.775082         0.276015        -2.232816
 C         1.267471         1.160776        -1.049003
 C         2.488421         2.194673        -0.941569
 C         1.330119         0.396307         0.248502
 O         0.499644         0.252726         1.135986
 H         4.930882         2.315290        -2.817977
 H         1.140897         3.041324        -2.983874
 H         2.299577         3.179134        -4.286470
 H         2.882908         0.882538        -4.168669
 H         0.982052        -0.252893        -2.722721
 H         2.635736        -0.437671        -1.943803
 H         0.306056         1.690492        -1.352159
 H         2.204060         3.163775        -0.442218
 H         3.199690         1.826168        -0.171891
 H         2.271159        -0.176495         0.419335
