19
Iteration:   150charge 0 multiplicity 1
 O         4.279299         3.039123        -2.415323
 C         3.032456         2.378306        -2.319244
 C         2.254810         2.457421        -3.612157
 C         2.701844         1.029543        -3.134517
 C         1.596597         0.244028        -2.330065
 C         1.273509         1.078047        -1.052535
 C         2.253704         2.456447        -1.026440
 C         1.343878         0.347808         0.206435
 O         0.725486         0.379307         1.259903
 H         4.453733         3.704342        -1.766541
 H         1.212320         2.532171        -3.405138
 H         2.864574         2.920897        -4.396894
 H         3.481261         0.470873        -3.580245
 H         0.633551        -0.166338        -2.808094
 H         2.239744        -0.628748        -1.983003
 H         0.170878         1.467346        -1.106436
 H         1.720251         3.430727        -0.796123
 H         3.008466         2.250649        -0.195937
 H         2.181828        -0.563265         0.086432
