19
Iteration:  3642
 O         4.247716         2.921815        -2.545671
 C         2.979230         2.391781        -2.390076
 C         2.032254         2.450526        -3.489705
 C         2.680098         1.069920        -3.184677
 C         1.946126         0.248847        -2.204068
 C         1.421544         1.184028        -1.000275
 C         2.511153         2.290281        -0.898466
 C         1.341482         0.411224         0.328151
 O         0.342830         0.435782         1.042334
 H         4.330254         3.876294        -2.343004
 H         0.978528         2.495201        -3.369455
 H         2.363571         2.974584        -4.385588
 H         3.513434         0.594913        -3.707301
 H         1.123174        -0.275779        -2.686280
 H         2.544576        -0.553124        -1.737307
 H         0.352021         1.568760        -1.229182
 H         2.241531         3.240660        -0.412839
 H         3.381773         1.939311        -0.361065
 H         2.290230        -0.132015         0.685818
