19
Iteration:  1185charge 0 multiplicity 1
 O         4.347938         2.847694        -2.514012
 C         2.930081         2.521905        -2.358423
 C         1.976427         2.576877        -3.472706
 C         2.477857         1.147751        -3.267704
 C         1.816331         0.273810        -2.204476
 C         1.580288         1.180767        -0.920014
 C         2.610347         2.323390        -0.888882
 C         1.389108         0.338060         0.269214
 O         0.366814         0.252951         0.965023
 H         4.391562         3.388919        -1.679630
 H         0.975587         2.832642        -3.339659
 H         2.371818         3.014913        -4.397989
 H         3.265066         0.729818        -3.887811
 H         0.818878        -0.077032        -2.302530
 H         2.317945        -0.718156        -1.878053
 H         0.653698         1.645710        -1.047472
 H         2.121235         3.243303        -0.651906
 H         3.542883         2.170582        -0.239122
 H         2.255217        -0.188130         0.648778
