19
Iteration:  3771
 O         4.279895         3.014718        -2.300412
 C         3.008722         2.312340        -2.455627
 C         2.134604         2.485508        -3.635445
 C         2.626494         1.119275        -3.299759
 C         1.893152         0.224843        -2.344785
 C         1.348848         1.129564        -1.014139
 C         2.409205         2.241384        -1.064975
 C         1.359615         0.349981         0.496041
 O         0.394760         0.487893         1.264250
 H         4.349371         3.646968        -3.089970
 H         1.134350         2.910919        -3.590026
 H         2.720452         2.848468        -4.432628
 H         3.454710         0.572441        -3.680762
 H         0.973696        -0.381653        -2.595694
 H         2.707405        -0.417999        -1.990847
 H         0.403361         1.401836        -1.178658
 H         1.981113         3.215856        -0.843003
 H         3.433578         2.241319        -0.481029
 H         2.189918        -0.422076         0.635402
