19
Iteration:  1026charge 0 multiplicity 1
 O         4.349731         2.896030        -2.599548
 C         3.076391         2.442983        -2.305389
 C         1.979622         2.550626        -3.419728
 C         2.538889         1.230092        -3.128494
 C         1.732396         0.340386        -2.197636
 C         1.485768         1.146770        -1.003272
 C         2.621039         2.251448        -0.826912
 C         1.393882         0.497647         0.380229
 O         0.345123         0.100643         0.912481
 H         4.412860         3.116501        -3.547412
 H         0.893623         2.738918        -3.260340
 H         2.342231         3.106736        -4.378151
 H         3.260121         0.846255        -3.791588
 H         0.651518         0.112071        -2.701009
 H         2.285330        -0.572817        -2.076925
 H         0.523525         1.700337        -1.272341
 H         2.253020         3.158642        -0.253344
 H         3.456965         1.952116        -0.214849
 H         2.383950         0.373670         0.839553
