19
Iteration:    61
 O         4.402016         2.972449        -2.287795
 C         3.047209         2.357110        -2.445836
 C         2.032235         2.588607        -3.602829
 C         2.611760         1.153046        -3.263435
 C         1.830258         0.126078        -2.252904
 C         1.333784         1.088243        -0.968498
 C         2.218362         2.344638        -1.111817
 C         1.469528         0.396919         0.441884
 O         0.493210         0.376150         1.150950
 H         4.843794         2.718011        -3.100086
 H         0.995910         3.087107        -3.500283
 H         2.519229         2.998765        -4.496302
 H         3.460561         0.860785        -3.890332
 H         0.985374        -0.522863        -2.630342
 H         2.673507        -0.438854        -1.742209
 H         0.215008         1.280125        -0.993993
 H         1.524480         3.233490        -1.110985
 H         3.026437         2.404221        -0.320347
 H         2.432581         0.155117         0.762459
