19
Iteration:  1486charge 0 multiplicity 1
 O         4.382412         2.894218        -2.612649
 C         3.105504         2.393934        -2.351727
 C         2.019122         2.714359        -3.365744
 C         2.491966         1.273609        -3.232167
 C         1.772950         0.278806        -2.259539
 C         1.523075         1.085579        -0.902290
 C         2.570281         2.281733        -0.953339
 C         1.374538         0.268885         0.396779
 O         0.306045         0.243888         1.049669
 H         4.342955         3.659739        -3.251924
 H         1.050399         3.008204        -3.050310
 H         2.196566         3.060492        -4.313703
 H         3.114396         1.056460        -4.075869
 H         0.921311        -0.115845        -2.805084
 H         2.363885        -0.737899        -2.089316
 H         0.508979         1.572810        -1.058424
 H         2.031949         3.151994        -0.512411
 H         3.490758         1.899777        -0.372479
 H         2.192573        -0.325433         0.891341
