19
Iteration:  2899
 O         4.255752         2.999562        -2.485869
 C         3.054722         2.315175        -2.426828
 C         2.005601         2.404274        -3.374858
 C         2.672774         1.069845        -3.073683
 C         1.722998         0.203393        -2.107814
 C         1.425216         1.337891        -0.946816
 C         2.585151         2.260322        -0.921676
 C         1.343324         0.632312         0.249287
 O         0.395043         0.204276         0.834031
 H         4.492179         3.487128        -3.318907
 H         0.988603         2.378579        -3.094072
 H         2.370385         2.706824        -4.388491
 H         3.496317         0.696625        -3.764966
 H         0.760598        -0.229726        -2.481780
 H         2.476986        -0.438016        -1.733627
 H         0.425730         1.874756        -1.150038
 H         2.547115         3.345336        -0.437711
 H         3.412229         1.713265        -0.319292
 H         2.409248         0.530283         0.679000
