19
Iteration:  2188
 O         4.243250         3.143859        -2.588971
 C         3.138516         2.295887        -2.477668
 C         1.976366         2.425906        -3.437673
 C         2.622192         1.085305        -3.166303
 C         1.873455         0.265735        -2.056191
 C         1.487600         1.263238        -0.862567
 C         2.680720         2.224744        -0.911360
 C         1.275108         0.506540         0.366075
 O         0.223770         0.239967         0.890823
 H         4.925880         2.812101        -3.178872
 H         0.948884         2.511530        -2.960881
 H         2.140853         3.063833        -4.272762
 H         3.337499         0.729764        -3.922893
 H         0.997874        -0.162955        -2.504385
 H         2.444031        -0.681321        -1.887021
 H         0.466520         1.581806        -1.225915
 H         2.415979         3.201383        -0.556723
 H         3.508206         1.833742        -0.355464
 H         2.201220         0.175350         0.914473
