19
Iteration:  4658
 O         4.278108         2.886496        -2.682894
 C         3.083702         2.339648        -2.379033
 C         1.989116         2.445802        -3.379067
 C         2.727601         1.124030        -3.035689
 C         1.934333         0.179559        -2.045234
 C         1.388911         1.200617        -0.993522
 C         2.467653         2.320422        -0.919731
 C         1.393785         0.560944         0.316046
 O         0.305719         0.363215         0.858792
 H         4.159189         3.840608        -2.683246
 H         0.926970         2.492398        -3.015871
 H         2.060813         2.904927        -4.364815
 H         3.335774         0.690436        -3.705416
 H         1.213292        -0.372992        -2.608727
 H         2.518233        -0.593961        -1.668521
 H         0.368325         1.586166        -1.145803
 H         2.113009         3.324961        -0.595903
 H         3.323476         2.069903        -0.195698
 H         2.334251         0.016337         0.728599
