19
Iteration:  3499charge 0 multiplicity 1
 O         4.353833         2.900874        -2.610763
 C         3.120097         2.346214        -2.382226
 C         2.059765         2.357528        -3.451757
 C         2.652640         1.062110        -2.977208
 C         1.766170         0.300547        -2.022286
 C         1.311985         1.378283        -0.955432
 C         2.424607         2.463557        -0.975962
 C         1.424208         0.493060         0.250478
 O         0.408588         0.134068         0.829667
 H         4.342744         3.904658        -2.525172
 H         1.055851         2.732436        -3.063903
 H         2.284951         2.618771        -4.459781
 H         3.309136         0.534471        -3.758572
 H         0.984751        -0.164860        -2.641284
 H         2.175133        -0.640301        -1.513126
 H         0.201907         1.785269        -0.784055
 H         2.152293         3.451576        -0.571180
 H         3.189629         2.087271        -0.308289
 H         2.510655         0.314611         0.618710
