19
Iteration:  2848charge 0 multiplicity 1
 O         4.418216         2.867309        -2.624875
 C         3.056791         2.366315        -2.449843
 C         2.111958         2.506434        -3.624113
 C         2.559347         1.094135        -3.043431
 C         1.782700         0.387094        -2.033490
 C         1.412698         1.384886        -0.838645
 C         2.524669         2.554736        -1.018505
 C         1.380778         0.403240         0.603766
 O         0.250476        -0.070204         0.854169
 H         4.310648         3.647495        -3.210682
 H         1.053482         2.873006        -3.469009
 H         2.778064         2.552652        -4.578076
 H         3.199522         0.350031        -3.669408
 H         0.748903        -0.103496        -2.372879
 H         2.399667        -0.546332        -1.679292
 H         0.510355         1.868042        -1.128977
 H         2.123698         3.508532        -1.045317
 H         3.410710         2.654645        -0.427737
 H         2.331984         0.072890         1.097448
