19
Iteration:  4087
 O         4.336578         2.866216        -2.629435
 C         3.013746         2.410180        -2.410918
 C         2.164285         2.482335        -3.650557
 C         2.617698         1.154918        -3.039907
 C         1.867716         0.299467        -2.177527
 C         1.443737         1.251660        -0.886731
 C         2.499512         2.451064        -0.956173
 C         1.303562         0.459062         0.498846
 O         0.254563         0.098274         1.007550
 H         4.119516         3.705451        -3.107631
 H         1.059458         2.588034        -3.623250
 H         2.634465         2.660596        -4.563360
 H         3.282346         0.503239        -3.751628
 H         1.140544        -0.430829        -2.536125
 H         2.659374        -0.184587        -1.617268
 H         0.344605         1.451551        -1.085202
 H         2.145412         3.471943        -0.660381
 H         3.456140         2.401445        -0.274705
 H         2.287220         0.295729         0.979463
