19
Iteration:  1519
 O         4.368866         2.916289        -2.480907
 C         3.089404         2.364246        -2.387325
 C         1.972781         2.695006        -3.396160
 C         2.464664         1.273303        -3.214188
 C         1.750938         0.241713        -2.228942
 C         1.422196         1.227220        -0.970951
 C         2.602143         2.181069        -0.943116
 C         1.366435         0.429228         0.346270
 O         0.406809         0.162269         0.994505
 H         4.524881         2.997740        -3.451212
 H         0.988295         2.880441        -3.069480
 H         2.167343         2.937964        -4.356751
 H         3.124792         1.025447        -4.016567
 H         0.887093        -0.200676        -2.714118
 H         2.534122        -0.500842        -1.721341
 H         0.491766         1.890941        -1.060890
 H         2.461449         2.983118        -0.199248
 H         3.404814         1.645408        -0.267074
 H         2.495415         0.147053         0.508961
