19
Iteration:  4069charge 0 multiplicity 1
 O         4.349775         2.815849        -2.612692
 C         2.974705         2.477880        -2.415709
 C         1.997743         2.410707        -3.655606
 C         2.669052         1.131108        -3.099606
 C         1.946710         0.300074        -2.025704
 C         1.434756         1.266361        -0.856713
 C         2.484963         2.395968        -0.932077
 C         1.337221         0.499392         0.439042
 O         0.291014         0.157500         0.879243
 H         4.463067         3.784646        -2.801354
 H         0.909117         2.644288        -3.431513
 H         2.597192         2.842667        -4.485529
 H         3.518551         0.794667        -3.694506
 H         0.928917        -0.107792        -2.299922
 H         2.607960        -0.527432        -1.656968
 H         0.451392         1.642981        -1.107885
 H         2.019544         3.262039        -0.514931
 H         3.291240         2.150463        -0.308716
 H         2.329839         0.159487         0.919421
