19
Iteration:  2673charge 0 multiplicity 1
 O         4.345698         2.894112        -2.648812
 C         3.080932         2.284550        -2.376077
 C         2.049698         2.438052        -3.410208
 C         2.605666         1.062595        -3.080263
 C         1.781570         0.318818        -2.024661
 C         1.451333         1.400476        -0.957991
 C         2.538879         2.379016        -0.991739
 C         1.360120         0.547924         0.325499
 O         0.339490         0.112184         0.858992
 H         4.163704         3.712805        -2.180637
 H         0.945166         2.623321        -3.161270
 H         2.300105         2.832161        -4.381228
 H         3.146969         0.630372        -3.890849
 H         0.846399        -0.218894        -2.253112
 H         2.441683        -0.313220        -1.445475
 H         0.502614         1.839793        -1.249345
 H         2.103120         3.341057        -0.740332
 H         3.294462         2.107722        -0.152756
 H         2.393188         0.164415         0.599277
