19
Iteration:   186
 O         4.281830         2.805665        -2.228011
 C         2.927048         2.452077        -2.374514
 C         2.148017         2.569945        -3.662535
 C         2.648386         1.179476        -3.139975
 C         1.726752         0.218919        -2.369871
 C         1.401030         0.923112        -1.048791
 C         2.190718         2.373864        -1.038621
 C         1.518280         0.354446         0.339728
 O         0.628658         0.514319         1.171812
 H         4.539166         3.621169        -2.639863
 H         1.111496         2.753104        -3.595683
 H         2.442455         3.032938        -4.564921
 H         3.606221         0.779295        -3.613887
 H         0.848958         0.019739        -2.960330
 H         2.162438        -0.770943        -2.197502
 H         0.339939         1.310974        -1.115969
 H         1.563144         3.204513        -0.698088
 H         3.080286         2.324952        -0.392169
 H         2.536810        -0.250547         0.561944
