19
Iteration:    13
 O         4.355498         2.851613        -2.488072
 C         2.981624         2.394163        -2.334028
 C         1.918916         2.457616        -3.555068
 C         2.609737         1.175541        -3.056970
 C         1.958288         0.182785        -2.085160
 C         1.304106         1.205025        -1.021460
 C         2.443463         2.364530        -0.968675
 C         1.450439         0.478703         0.285072
 O         0.416793         0.365152         0.962908
 H         4.327700         3.747957        -2.972548
 H         0.857540         2.345148        -3.572494
 H         2.345261         3.118913        -4.336728
 H         3.386026         0.648946        -3.673273
 H         1.339955        -0.571918        -2.566841
 H         2.853263        -0.309319        -1.612168
 H         0.319362         1.447604        -1.196456
 H         2.148568         3.308887        -0.534182
 H         3.248945         1.888036        -0.355269
 H         2.330774        -0.183261         0.394917
