19
Iteration:  1016
 O         4.366414         2.932633        -2.542601
 C         3.033439         2.343197        -2.338769
 C         2.049622         2.605725        -3.417321
 C         2.476300         1.172071        -3.194267
 C         1.772751         0.327410        -2.241607
 C         1.529850         1.227335        -0.871295
 C         2.577641         2.285553        -0.919749
 C         1.376186         0.469525         0.384639
 O         0.355342         0.098926         0.900196
 H         4.334311         3.216263        -3.449162
 H         1.071266         2.830098        -2.960823
 H         2.213678         3.151021        -4.437151
 H         3.238453         0.680232        -3.704253
 H         0.650080        -0.025099        -2.420894
 H         2.271498        -0.633786        -2.163810
 H         0.496828         1.723853        -0.986142
 H         2.157883         3.294260        -0.609451
 H         3.425995         1.875000        -0.369044
 H         2.321469         0.214038         0.893253
