19
Iteration:  2838charge 0 multiplicity 1
 O         4.421127         2.815336        -2.621616
 C         3.096702         2.368221        -2.478724
 C         2.145846         2.509994        -3.588350
 C         2.520789         1.095347        -3.050411
 C         1.748480         0.396746        -1.931943
 C         1.527608         1.374973        -0.841634
 C         2.443541         2.598368        -1.064009
 C         1.329962         0.417156         0.518254
 O         0.298248        -0.067495         0.841916
 H         4.401139         3.757032        -2.937749
 H         1.058059         2.799125        -3.614944
 H         2.459086         2.568390        -4.700862
 H         3.263495         0.615817        -3.770905
 H         0.791446        -0.076879        -2.292579
 H         2.435324        -0.478958        -1.672576
 H         0.488707         1.609542        -0.882775
 H         1.939859         3.488823        -0.897410
 H         3.157410         2.442075        -0.292834
 H         2.258823         0.172290         1.109424
