19
Iteration:  4274
 O         4.353115         3.069710        -2.549097
 C         3.067783         2.365588        -2.387057
 C         2.053826         2.438730        -3.549503
 C         2.694977         1.113945        -3.189649
 C         1.877912         0.140182        -2.186744
 C         1.384569         1.112739        -0.980099
 C         2.451219         2.242742        -0.975366
 C         1.267948         0.377200         0.345239
 O         0.349135         0.464708         1.164120
 H         4.191034         4.046505        -2.675455
 H         1.103105         2.739414        -3.409504
 H         2.458365         2.941674        -4.445926
 H         3.372189         0.694898        -3.851287
 H         1.018892        -0.210765        -2.710826
 H         2.534581        -0.619783        -1.729017
 H         0.463906         1.491148        -1.352665
 H         2.093781         3.173650        -0.587872
 H         3.290933         1.995638        -0.287106
 H         2.173484        -0.286001         0.626388
