19
Iteration:  3020
 O         4.214116         3.129785        -2.299409
 C         3.091746         2.315317        -2.383329
 C         2.019249         2.372074        -3.567638
 C         2.656854         1.083510        -3.161754
 C         1.834491         0.145819        -2.321326
 C         1.406572         1.021274        -1.057140
 C         2.521798         2.144402        -0.919589
 C         1.378501         0.461566         0.277226
 O         0.428710         0.609176         1.073535
 H         4.149947         3.803350        -3.024081
 H         1.054987         2.826957        -3.109013
 H         2.354527         3.090864        -4.360477
 H         3.265775         0.669509        -3.986368
 H         0.856874        -0.257156        -2.679359
 H         2.463211        -0.654638        -1.981049
 H         0.397556         1.493651        -1.289442
 H         2.141853         3.073871        -0.362093
 H         3.358470         1.787115        -0.214137
 H         2.277940        -0.168675         0.564050
