19
Iteration:  1346charge 0 multiplicity 1
 O         4.354483         2.970505        -2.559506
 C         3.047698         2.413842        -2.385806
 C         1.960490         2.701759        -3.318913
 C         2.546303         1.192499        -3.118687
 C         1.813351         0.237621        -2.174731
 C         1.395178         1.206072        -1.099612
 C         2.494179         2.189203        -0.965425
 C         1.293190         0.375070         0.211812
 O         0.521812         0.281554         1.082781
 H         5.004894         2.299918        -2.183991
 H         0.937277         2.809178        -3.066651
 H         2.283095         2.965008        -4.308916
 H         3.279119         0.659479        -3.775436
 H         0.948999        -0.262378        -2.699091
 H         2.331625        -0.530343        -1.758605
 H         0.390310         1.658993        -1.223690
 H         2.102817         3.063907        -0.478115
 H         3.345010         1.764115        -0.476020
 H         2.267795        -0.234719         0.147817
