19
Iteration:  2854
 O         4.391846         2.891265        -2.628793
 C         3.059567         2.409512        -2.421243
 C         2.120760         2.433664        -3.642303
 C         2.606182         1.117067        -3.057607
 C         1.762310         0.316683        -2.070573
 C         1.395916         1.377506        -0.791470
 C         2.578955         2.489212        -1.008841
 C         1.324313         0.437822         0.556051
 O         0.271732        -0.057836         0.871691
 H         4.290616         3.540753        -3.371825
 H         1.204693         2.942050        -3.481214
 H         2.616650         2.860651        -4.481553
 H         3.101696         0.416928        -3.665733
 H         0.841830         0.018140        -2.515526
 H         2.345999        -0.385333        -1.548201
 H         0.381794         1.911377        -0.929383
 H         2.081444         3.572283        -0.942442
 H         3.535130         2.635903        -0.391267
 H         2.321239         0.162947         1.005287
