19
Iteration:  3900
 O         4.250201         2.892840        -2.496647
 C         2.955560         2.388305        -2.414263
 C         2.075397         2.480779        -3.608638
 C         2.696529         1.094029        -3.120860
 C         1.852748         0.243581        -2.137685
 C         1.499396         1.172619        -1.028182
 C         2.538226         2.323953        -0.937400
 C         1.315223         0.555512         0.407712
 O         0.330919         0.267692         1.031060
 H         4.191168         3.654181        -3.059542
 H         1.047473         2.728313        -3.430698
 H         2.545404         2.955343        -4.428030
 H         3.553208         0.608216        -3.478578
 H         0.999857        -0.257074        -2.637061
 H         2.539989        -0.579068        -1.861123
 H         0.377204         1.603627        -1.166587
 H         2.027535         3.189781        -0.512047
 H         3.461656         2.267666        -0.328009
 H         2.272718         0.157654         0.758645
