19
Iteration:  2055charge 0 multiplicity 1
 O         4.308554         2.904136        -2.432756
 C         3.012713         2.364363        -2.352393
 C         2.039256         2.432611        -3.450072
 C         2.674660         1.148936        -3.022978
 C         1.705964         0.338197        -2.273935
 C         1.362291         1.292478        -1.022068
 C         2.509275         2.328002        -0.977218
 C         1.362305         0.475991         0.265431
 O         0.492211         0.183912         1.048696
 H         4.414015         2.834355        -3.392753
 H         0.962408         2.440662        -3.299882
 H         2.452196         2.977119        -4.385882
 H         3.396071         0.788016        -3.693150
 H         0.817847         0.184696        -2.895168
 H         2.182892        -0.674253        -2.061124
 H         0.300533         1.711870        -1.258511
 H         2.304454         3.431162        -0.717680
 H         3.349940         2.131706        -0.172809
 H         2.526341         0.202498         0.367322
