19
Iteration:  3054charge 0 multiplicity 1
 O         4.216962         2.998972        -2.446102
 C         2.920876         2.428026        -2.386077
 C         2.158418         2.483764        -3.715223
 C         2.803924         1.161581        -3.053777
 C         1.852909         0.180695        -2.331688
 C         1.378734         1.014216        -1.023834
 C         2.413343         2.173973        -0.958036
 C         1.291124         0.320885         0.338602
 O         0.472123         0.603346         1.234502
 H         4.133735         3.914811        -2.763817
 H         1.128301         2.886677        -3.459569
 H         2.753975         2.985012        -4.478076
 H         3.561466         0.743250        -3.595724
 H         0.912186        -0.146867        -2.821975
 H         2.443930        -0.707643        -2.285985
 H         0.321243         1.311963        -1.065843
 H         1.998657         3.023216        -0.394180
 H         3.290568         1.671259        -0.401251
 H         2.113835        -0.459589         0.555961
