19
Iteration:   660charge 0 multiplicity 1
 O         4.313913         3.096766        -2.455210
 C         3.118387         2.361211        -2.363457
 C         2.017913         2.633874        -3.374012
 C         2.522109         1.134310        -3.198446
 C         1.746428         0.158727        -2.270743
 C         1.399629         1.069613        -0.960511
 C         2.603162         2.174828        -1.003821
 C         1.395502         0.376783         0.314201
 O         0.381175         0.375947         1.021433
 H         4.612268         3.222436        -3.373447
 H         1.080274         2.747003        -2.846773
 H         2.236299         3.312098        -4.198631
 H         2.940159         0.670167        -4.122012
 H         0.809183        -0.270814        -2.605415
 H         2.484180        -0.641656        -1.959406
 H         0.448296         1.448655        -1.212018
 H         2.295020         3.096110        -0.519729
 H         3.480328         2.030337        -0.279887
 H         2.369607        -0.077188         0.677562
