19
Iteration:  3033charge 0 multiplicity 1
 O         4.215817         3.102111        -2.359074
 C         2.936210         2.365199        -2.309636
 C         2.132497         2.461910        -3.537138
 C         2.690420         1.081966        -3.269575
 C         1.824548         0.197938        -2.338081
 C         1.437562         1.031687        -1.031992
 C         2.476694         2.096882        -0.943618
 C         1.338366         0.375330         0.352984
 O         0.440405         0.627918         1.136392
 H         4.134941         3.806050        -3.008145
 H         1.037969         2.391248        -3.751363
 H         2.693099         2.892986        -4.357741
 H         3.482191         0.627153        -3.743332
 H         0.918624        -0.216335        -2.877589
 H         2.435479        -0.698251        -2.153807
 H         0.474667         1.487740        -1.163493
 H         2.066036         3.017037        -0.539423
 H         3.437530         1.750416        -0.316746
 H         2.296800        -0.049206         0.745796
