19
Iteration:  3880
 O         4.314488         2.943306        -2.512451
 C         3.033999         2.440089        -2.439797
 C         2.131316         2.433541        -3.708469
 C         2.600463         1.139683        -3.138002
 C         1.879987         0.225325        -2.176397
 C         1.416834         1.169959        -0.857408
 C         2.414833         2.322698        -0.967861
 C         1.357710         0.401563         0.444520
 O         0.335842         0.327687         1.041507
 H         4.227013         3.900626        -2.432693
 H         1.131558         2.723320        -3.893175
 H         2.774315         2.621032        -4.556165
 H         3.369649         0.804054        -3.793284
 H         0.877727        -0.207750        -2.463695
 H         2.496012        -0.582837        -1.738052
 H         0.393134         1.559761        -1.097031
 H         2.134662         3.144209        -0.400232
 H         3.307974         2.024994        -0.551989
 H         2.372584         0.088313         0.917152
