19
Iteration:   507charge 0 multiplicity 1
 O         4.414348         2.729174        -2.641656
 C         3.087667         2.373379        -2.444239
 C         2.056648         2.606527        -3.538585
 C         2.515804         1.172929        -3.088817
 C         1.803305         0.435295        -2.011272
 C         1.301749         1.366957        -0.895177
 C         2.430554         2.441679        -0.958329
 C         1.347792         0.499957         0.331854
 O         0.468957        -0.125889         0.953474
 H         4.566101         3.707052        -2.696262
 H         1.056480         3.057173        -3.364450
 H         2.461807         2.905880        -4.504971
 H         3.326208         0.665812        -3.620283
 H         0.995110        -0.217283        -2.379975
 H         2.476494        -0.317104        -1.448298
 H         0.313410         1.769199        -1.029245
 H         2.019135         3.433149        -0.837125
 H         3.249713         2.153864        -0.244427
 H         2.397078         0.414457         0.718022
