19
Iteration:  3854charge 0 multiplicity 1
 O         4.320519         2.982478        -2.545326
 C         3.075884         2.395077        -2.400898
 C         2.098649         2.409559        -3.575695
 C         2.700215         1.080534        -3.037099
 C         1.807567         0.217746        -2.184826
 C         1.328403         1.187964        -0.989991
 C         2.453613         2.371292        -1.059205
 C         1.318129         0.399416         0.309468
 O         0.407227         0.331873         1.127070
 H         4.362793         3.743642        -1.976500
 H         0.992681         2.492761        -3.435827
 H         2.484533         2.913258        -4.476832
 H         3.377767         0.595304        -3.776857
 H         0.985446        -0.315572        -2.618086
 H         2.406829        -0.548993        -1.664265
 H         0.281115         1.678455        -1.278282
 H         1.998347         3.388308        -0.787936
 H         3.276905         2.347510        -0.258584
 H         2.317092        -0.057943         0.557679
