19
Iteration:  4155
 O         4.289204         2.839471        -2.514134
 C         2.956512         2.390529        -2.384793
 C         2.053605         2.424866        -3.558207
 C         2.767802         1.047685        -3.010623
 C         1.826392         0.218153        -2.130080
 C         1.332020         1.307653        -0.948006
 C         2.384980         2.419871        -0.975365
 C         1.457068         0.545522         0.309294
 O         0.425758         0.259634         0.958806
 H         4.319705         3.739859        -2.236963
 H         0.983987         2.472093        -3.671802
 H         2.564655         2.731725        -4.559692
 H         3.323127         0.637023        -3.782226
 H         0.897262        -0.023702        -2.646839
 H         2.395960        -0.655783        -2.005422
 H         0.390801         1.752349        -1.049370
 H         2.073127         3.352578        -0.553602
 H         3.288243         2.156830        -0.297124
 H         2.498208         0.002732         0.397941
