19
Iteration:  3952charge 0 multiplicity 1
 O         4.322253         2.992537        -2.575405
 C         3.112816         2.393306        -2.424371
 C         2.014383         2.458118        -3.445569
 C         2.616519         1.037384        -3.069629
 C         1.902591         0.166666        -1.991140
 C         1.504557         1.350869        -0.951033
 C         2.523993         2.333629        -0.961596
 C         1.289456         0.462650         0.285153
 O         0.274766         0.238238         0.906192
 H         4.115989         3.559468        -3.301377
 H         0.923850         2.587485        -3.186960
 H         2.301256         2.800832        -4.424025
 H         3.105083         0.560593        -3.851819
 H         0.949560        -0.164929        -2.324376
 H         2.607853        -0.630127        -1.729705
 H         0.448221         1.565786        -1.138471
 H         2.222282         3.436263        -0.789757
 H         3.475215         2.164227        -0.299796
 H         2.242294         0.003201         0.785493
