19
Iteration:  2990charge 0 multiplicity 1
 O         4.294914         3.016271        -2.423916
 C         3.064343         2.400875        -2.396829
 C         1.890822         2.416639        -3.402637
 C         2.687175         1.083688        -3.100158
 C         1.969811         0.163112        -2.179728
 C         1.394779         1.117385        -1.056594
 C         2.499762         2.233312        -0.968715
 C         1.272235         0.417104         0.205966
 O         0.408382         0.531077         1.000570
 H         4.512741         3.490861        -3.211596
 H         0.928831         2.655470        -2.881464
 H         2.208849         3.124247        -4.143494
 H         3.240335         0.765648        -3.918672
 H         1.098529        -0.514929        -2.429906
 H         2.760021        -0.449386        -1.669187
 H         0.459699         1.503393        -1.357759
 H         2.155375         3.128000        -0.504259
 H         3.420768         1.871246        -0.342612
 H         2.128573        -0.301827         0.352972
