19
Iteration:  4424
 O         4.309229         2.924346        -2.541277
 C         3.033913         2.403359        -2.373685
 C         2.004508         2.437447        -3.519756
 C         2.670658         1.087959        -3.039570
 C         1.865677         0.227882        -2.082196
 C         1.439409         1.220172        -1.035858
 C         2.507182         2.350901        -0.989686
 C         1.323983         0.452425         0.252026
 O         0.391790         0.352941         1.032026
 H         4.154574         3.900059        -2.387359
 H         0.977365         2.469358        -3.490915
 H         2.579851         2.717491        -4.384945
 H         3.336821         0.559861        -3.630245
 H         0.975981        -0.123804        -2.593892
 H         2.292113        -0.683209        -1.743508
 H         0.371730         1.509654        -1.218648
 H         1.986241         3.327613        -0.687657
 H         3.313925         2.097585        -0.289957
 H         2.170028        -0.362250         0.374328
