19
Iteration:  1244charge 0 multiplicity 1
 O         4.364432         2.964343        -2.499335
 C         3.048723         2.283276        -2.379900
 C         2.082566         2.617783        -3.369013
 C         2.565298         1.151142        -3.120023
 C         1.780652         0.292773        -2.270213
 C         1.336966         1.295546        -1.070876
 C         2.543843         2.277477        -0.935249
 C         1.286442         0.371616         0.247763
 O         0.485499         0.174811         1.134993
 H         4.132061         3.545822        -3.206296
 H         1.002065         3.003790        -3.115355
 H         2.369845         2.849760        -4.381700
 H         3.037654         0.539932        -3.916731
 H         0.857479        -0.038024        -2.771647
 H         2.480567        -0.505146        -1.889680
 H         0.240798         1.599299        -1.408492
 H         2.442694         3.331889        -0.496385
 H         3.289447         1.927569        -0.171080
 H         2.335491         0.045658         0.300681
