19
Iteration:  3717charge 0 multiplicity 1
 O         4.221789         2.958205        -2.430478
 C         3.012129         2.332495        -2.299747
 C         2.011653         2.404661        -3.387843
 C         2.805182         1.057579        -3.131537
 C         1.866115         0.242034        -2.196940
 C         1.341194         1.159215        -1.077348
 C         2.411363         2.295626        -0.865531
 C         1.364528         0.406359         0.132837
 O         0.501559         0.565887         1.002009
 H         4.272251         3.407984        -3.299380
 H         0.966743         2.299995        -3.185618
 H         2.198056         2.826180        -4.349251
 H         3.301378         0.642635        -3.996642
 H         0.929436        -0.212319        -2.595310
 H         2.383021        -0.582987        -1.701611
 H         0.394724         1.460676        -1.219899
 H         2.029013         3.270001        -0.537544
 H         3.425641         1.900389        -0.369708
 H         2.299145        -0.155410         0.365371
