19
Iteration:  4558charge 0 multiplicity 1
 O         4.360859         2.815090        -2.652887
 C         3.038338         2.424985        -2.365947
 C         2.027619         2.385788        -3.473667
 C         2.769253         1.045697        -3.000031
 C         1.792040         0.328121        -2.055747
 C         1.328679         1.301288        -0.991103
 C         2.435649         2.447331        -0.925626
 C         1.360559         0.598292         0.321913
 O         0.409739         0.153577         0.877137
 H         4.279323         3.788967        -2.634677
 H         1.050385         2.251582        -3.095714
 H         2.221850         2.809855        -4.473712
 H         3.418509         0.429858        -3.838218
 H         0.961344        -0.094735        -2.588236
 H         2.233041        -0.414650        -1.429523
 H         0.214500         1.468594        -1.069863
 H         2.139145         3.537223        -0.876848
 H         3.274207         2.085835        -0.298214
 H         2.372351         0.261853         0.925291
