19
Iteration:   806
 O         4.340828         2.936285        -2.475909
 C         2.967994         2.403802        -2.422678
 C         2.017528         2.621784        -3.505826
 C         2.527127         1.169947        -3.129523
 C         1.743673         0.270706        -2.130636
 C         1.445105         1.186043        -0.933302
 C         2.595317         2.221713        -0.940230
 C         1.398654         0.302897         0.291472
 O         0.427200         0.308927         0.962825
 H         4.311031         3.918483        -2.575125
 H         1.100708         3.046940        -3.361522
 H         2.515081         2.831971        -4.465357
 H         3.172903         0.640899        -3.895929
 H         0.750832        -0.146014        -2.555495
 H         2.334680        -0.658838        -1.907849
 H         0.487834         1.733185        -1.042959
 H         2.370442         3.197347        -0.415320
 H         3.446508         1.613696        -0.444887
 H         2.391552        -0.217394         0.457988
