19
Iteration:  4497charge 0 multiplicity 1
 O         4.377264         2.841509        -2.474784
 C         2.969772         2.408450        -2.413914
 C         2.108359         2.419829        -3.716462
 C         2.594424         1.182607        -3.157938
 C         1.808082         0.322942        -2.059548
 C         1.418234         1.201146        -0.901864
 C         2.417257         2.384593        -1.028861
 C         1.395937         0.519187         0.498219
 O         0.348157         0.170694         0.974496
 H         4.387797         3.741471        -2.816894
 H         1.042524         2.579306        -3.768716
 H         2.706778         2.821945        -4.650962
 H         3.266007         0.678895        -3.796885
 H         0.974295        -0.346491        -2.428835
 H         2.615215        -0.428446        -1.706205
 H         0.416705         1.647516        -0.928462
 H         2.213453         3.440587        -0.769472
 H         3.287804         2.114707        -0.389981
 H         2.448714         0.289031         0.961758
