19
Iteration:   570charge 0 multiplicity 1
 O         4.442074         2.867687        -2.545064
 C         3.056961         2.389395        -2.429779
 C         2.086220         2.544653        -3.473217
 C         2.509707         1.142997        -3.186621
 C         1.686319         0.288841        -2.171446
 C         1.362831         1.283740        -0.929230
 C         2.459935         2.370038        -1.047193
 C         1.424439         0.501641         0.417335
 O         0.452472         0.030045         1.012851
 H         4.290021         3.774528        -2.119248
 H         1.018797         2.946621        -3.069222
 H         2.529443         2.947017        -4.435723
 H         3.259033         0.745976        -3.843007
 H         0.753570         0.038871        -2.621109
 H         2.308501        -0.647844        -2.110323
 H         0.327387         1.668063        -0.918747
 H         2.033065         3.364607        -0.784845
 H         3.189449         2.198053        -0.193065
 H         2.462737         0.335977         0.781435
