19
Iteration:  1734charge 0 multiplicity 1
 O         4.317550         3.015654        -2.478858
 C         3.031661         2.356073        -2.403350
 C         1.990065         2.555654        -3.428835
 C         2.592194         1.123956        -3.115783
 C         1.637408         0.402231        -2.168344
 C         1.439275         1.288983        -0.909736
 C         2.707205         2.270542        -0.934652
 C         1.400524         0.375852         0.254368
 O         0.366548         0.127267         0.912702
 H         4.698155         2.432647        -3.194095
 H         0.975082         2.767576        -2.975521
 H         2.195241         2.961224        -4.419019
 H         3.079425         0.481905        -3.817196
 H         0.614530         0.118878        -2.531822
 H         2.256730        -0.424187        -1.849495
 H         0.539172         1.892094        -0.967589
 H         2.666951         3.286050        -0.463811
 H         3.543888         1.775863        -0.472518
 H         2.418042        -0.048433         0.559746
