19
Iteration:  4885
 O         4.249893         2.921585        -2.420372
 C         3.000515         2.374109        -2.285870
 C         2.125825         2.371755        -3.678573
 C         2.701940         1.095391        -3.057386
 C         1.799814         0.204972        -2.226093
 C         1.332305         1.121143        -1.067736
 C         2.363661         2.355845        -0.981022
 C         1.381475         0.472624         0.285956
 O         0.510054         0.459593         1.121649
 H         4.302877         3.896468        -2.551952
 H         1.080220         2.600319        -3.591231
 H         2.640109         2.804519        -4.517140
 H         3.543927         0.748528        -3.651891
 H         1.095590        -0.353452        -2.931824
 H         2.463267        -0.689779        -1.866655
 H         0.303793         1.494795        -1.141606
 H         1.900359         3.348007        -0.760429
 H         3.080461         2.042784        -0.248462
 H         2.478409         0.067234         0.511982
