19
Iteration:   665charge 0 multiplicity 1
 O         4.313442         3.069142        -2.476708
 C         3.094391         2.397349        -2.377628
 C         2.019634         2.627277        -3.345769
 C         2.536224         1.167288        -3.195128
 C         1.794913         0.181293        -2.248653
 C         1.383567         1.047028        -1.027315
 C         2.592579         2.110924        -0.970960
 C         1.390770         0.375633         0.329982
 O         0.368142         0.378307         1.051336
 H         4.542488         3.169371        -3.434392
 H         1.034958         2.992020        -2.907341
 H         2.250146         3.191540        -4.259866
 H         3.038253         0.784008        -4.062709
 H         0.883755        -0.316478        -2.717050
 H         2.518107        -0.611499        -2.022603
 H         0.380410         1.601288        -1.156682
 H         2.301754         3.123573        -0.567523
 H         3.527629         1.962861        -0.400948
 H         2.385856         0.071928         0.701899
