19
Iteration:  3544charge 0 multiplicity 1
 O         4.398054         2.927881        -2.551225
 C         2.971702         2.410276        -2.411060
 C         2.079161         2.485296        -3.611387
 C         2.696236         1.090051        -3.036968
 C         1.787310         0.331395        -2.130120
 C         1.403739         1.236300        -0.885899
 C         2.491454         2.307845        -1.005270
 C         1.365728         0.525605         0.432755
 O         0.321465         0.137354         0.958221
 H         4.150036         3.757821        -3.046586
 H         1.036807         2.593720        -3.474677
 H         2.297053         2.617287        -4.664840
 H         3.443491         0.673249        -3.780683
 H         0.878065        -0.191219        -2.411211
 H         2.406164        -0.543033        -1.713780
 H         0.342256         1.705032        -1.188286
 H         2.241848         3.323966        -0.651615
 H         3.244973         2.002777        -0.361211
 H         2.420066         0.376617         0.892030
