19
Iteration:  2889
 O         4.301741         2.965948        -2.542293
 C         3.047107         2.412468        -2.323811
 C         1.998614         2.329183        -3.487968
 C         2.658941         1.077505        -2.965401
 C         1.743186         0.277528        -2.101107
 C         1.357933         1.358772        -0.978029
 C         2.633539         2.271426        -0.944742
 C         1.371893         0.645289         0.310467
 O         0.390703         0.127424         0.821150
 H         4.264157         3.355673        -3.449921
 H         1.025032         2.721188        -3.264381
 H         2.441856         2.901429        -4.339405
 H         3.271541         0.600444        -3.792705
 H         0.998108        -0.241127        -2.774839
 H         2.186379        -0.602052        -1.607160
 H         0.377003         1.901800        -1.044808
 H         2.307940         3.208126        -0.395512
 H         3.443480         1.746506        -0.336690
 H         2.385791         0.451518         0.763488
