19
Iteration:  4679
 O         4.315018         2.941212        -2.607726
 C         3.030633         2.392070        -2.447069
 C         1.946642         2.433415        -3.430218
 C         2.653841         1.076479        -3.127055
 C         1.977844         0.180024        -2.053915
 C         1.491814         1.156745        -0.998447
 C         2.558097         2.365693        -0.997110
 C         1.297799         0.455681         0.336987
 O         0.250479         0.392659         0.987586
 H         4.304835         3.871108        -2.256771
 H         0.912618         2.760305        -3.258994
 H         2.397863         2.777508        -4.338874
 H         3.295387         0.611713        -3.758060
 H         1.150882        -0.422911        -2.384207
 H         2.722059        -0.522127        -1.796831
 H         0.553759         1.640506        -1.270719
 H         1.927530         3.150666        -0.565609
 H         3.443874         2.150406        -0.316154
 H         2.274283        -0.072610         0.796871
