19
Iteration:   824
 O         4.408379         2.933655        -2.544102
 C         3.188871         2.331314        -2.368073
 C         2.043871         2.608100        -3.421660
 C         2.474969         1.171634        -3.205093
 C         1.737926         0.309329        -2.209763
 C         1.410405         1.164872        -0.963849
 C         2.520621         2.307820        -0.941235
 C         1.359862         0.359024         0.331051
 O         0.412818         0.213283         1.034644
 H         4.075673         3.819112        -2.858402
 H         1.027261         2.862231        -3.039236
 H         2.354828         3.063789        -4.359960
 H         2.952466         0.628801        -4.015512
 H         0.840437        -0.108950        -2.569007
 H         2.412719        -0.484021        -1.914517
 H         0.434067         1.558393        -0.993681
 H         1.959485         3.191501        -0.769342
 H         3.266346         2.406255        -0.208446
 H         2.224239        -0.313046         0.558202
