19
Iteration:  3899charge 0 multiplicity 1
 O         4.248712         2.892253        -2.494968
 C         2.937013         2.395540        -2.411239
 C         2.087613         2.479300        -3.617198
 C         2.691918         1.101109        -3.118697
 C         1.848758         0.236532        -2.140932
 C         1.501220         1.171079        -1.029731
 C         2.548036         2.326811        -0.944885
 C         1.317261         0.548543         0.414958
 O         0.328127         0.269260         1.035203
 H         4.203382         3.668922        -3.023934
 H         1.030203         2.737058        -3.458022
 H         2.584202         2.934778        -4.425760
 H         3.516018         0.568095        -3.482707
 H         1.041338        -0.274814        -2.654977
 H         2.549675        -0.575694        -1.903042
 H         0.369467         1.581485        -1.137001
 H         2.046133         3.252700        -0.523842
 H         3.492355         2.268351        -0.286810
 H         2.266412         0.150584         0.760837
