19
Iteration:  4133charge 0 multiplicity 1
 O         4.297039         2.895451        -2.462951
 C         3.073464         2.343445        -2.343729
 C         2.023049         2.288677        -3.498731
 C         2.670219         1.084156        -3.086479
 C         1.728083         0.285055        -2.088728
 C         1.368769         1.271304        -1.089795
 C         2.479497         2.419602        -0.977503
 C         1.418000         0.575119         0.298324
 O         0.439906         0.217737         0.922935
 H         4.168499         3.894035        -2.538006
 H         0.986982         2.527565        -3.203515
 H         2.266686         2.798527        -4.470180
 H         3.512033         0.582725        -3.565561
 H         0.966311        -0.154658        -2.702515
 H         2.344153        -0.472132        -1.692134
 H         0.394201         1.715405        -1.170657
 H         2.164928         3.409579        -0.695113
 H         3.278411         2.253963        -0.174802
 H         2.510072         0.422906         0.623213
