19
Iteration:  2273
 O         4.472723         2.967642        -2.612028
 C         3.053668         2.332562        -2.416272
 C         1.950720         2.436398        -3.389413
 C         2.675327         1.089976        -3.073548
 C         1.804242         0.224387        -2.142296
 C         1.425811         1.193471        -1.019405
 C         2.431231         2.347211        -0.982008
 C         1.345579         0.547591         0.309532
 O         0.342496         0.255446         1.005695
 H         4.519240         3.909352        -2.270763
 H         0.937897         2.708033        -2.957948
 H         2.068913         2.734633        -4.418765
 H         3.203346         0.715255        -3.963025
 H         0.949285        -0.423281        -2.693518
 H         2.549979        -0.466044        -1.629244
 H         0.466515         1.603663        -1.416239
 H         1.978461         3.279500        -0.465207
 H         3.237999         2.029513        -0.227583
 H         2.325952         0.283918         0.633071
