19
Iteration:  2867
 O         4.358256         2.938209        -2.630665
 C         3.086000         2.401579        -2.446512
 C         2.116182         2.439877        -3.583008
 C         2.627400         1.084610        -3.054563
 C         1.713083         0.368091        -2.031028
 C         1.457829         1.340914        -0.811668
 C         2.552434         2.433101        -0.949747
 C         1.301770         0.531277         0.388956
 O         0.299886        -0.027189         0.902058
 H         4.425291         3.405975        -3.461311
 H         1.058954         2.542948        -3.399922
 H         2.552390         2.704830        -4.588213
 H         3.462386         0.656124        -3.684479
 H         0.775702        -0.178481        -2.457146
 H         2.258485        -0.572588        -1.796803
 H         0.428083         1.811717        -0.933105
 H         2.153453         3.433768        -0.542497
 H         3.354752         2.033772        -0.248740
 H         2.258094         0.391732         0.952750
