19
Iteration:  1369charge 0 multiplicity 1
 O         4.290040         2.898698        -2.547096
 C         2.997020         2.398012        -2.346670
 C         1.976150         2.567468        -3.441818
 C         2.503367         1.223146        -3.208227
 C         1.816062         0.350347        -2.323229
 C         1.447763         1.132563        -0.957484
 C         2.577676         2.251855        -0.833815
 C         1.430615         0.293199         0.280135
 O         0.431106         0.364566         1.009833
 H         4.758107         2.832182        -1.704056
 H         0.936139         2.782449        -3.054295
 H         2.395346         3.109822        -4.248568
 H         3.085228         0.705486        -3.985465
 H         0.899062        -0.186171        -2.717785
 H         2.405700        -0.418031        -2.044508
 H         0.515267         1.685615        -0.926878
 H         2.218587         3.165758        -0.414203
 H         3.489866         1.918927        -0.355693
 H         2.287828        -0.395398         0.348342
