19
Iteration:  3977
 O         4.310987         2.921988        -2.632072
 C         2.971550         2.467350        -2.409587
 C         2.048534         2.413371        -3.682420
 C         2.634803         1.162504        -3.096084
 C         1.859652         0.297602        -2.043820
 C         1.542678         1.216641        -0.877973
 C         2.611205         2.256922        -0.876347
 C         1.305767         0.436839         0.457793
 O         0.206232         0.222587         0.897453
 H         4.151473         3.711278        -3.128627
 H         1.067064         2.574171        -3.434978
 H         2.385627         2.842673        -4.634944
 H         3.577195         0.813655        -3.492543
 H         1.093285        -0.392556        -2.387523
 H         2.708503        -0.251898        -1.734760
 H         0.512992         1.692124        -0.960185
 H         2.298654         3.245513        -0.613140
 H         3.581564         2.084262        -0.395495
 H         2.164279         0.352677         1.205133
