19
Iteration:  3310charge 0 multiplicity 1
 O         4.301871         2.931729        -2.571343
 C         3.058348         2.375114        -2.338003
 C         2.020329         2.484339        -3.463295
 C         2.644100         1.124119        -3.008938
 C         1.809124         0.155618        -2.126274
 C         1.463200         1.257594        -1.100497
 C         2.511240         2.262332        -0.877155
 C         1.387530         0.592346         0.294880
 O         0.365906         0.279182         0.917220
 H         4.021919         3.834944        -2.736422
 H         0.975232         2.472029        -3.082733
 H         2.092889         2.824801        -4.523516
 H         3.361082         0.632726        -3.709774
 H         0.900579        -0.389017        -2.429898
 H         2.435442        -0.698412        -1.847946
 H         0.555590         1.725886        -1.454521
 H         2.084091         3.118511        -0.424778
 H         3.357837         1.805265        -0.302197
 H         2.323223         0.289408         0.739514
