19
Iteration:  3669
 O         4.299894         3.052722        -2.510985
 C         3.033576         2.446351        -2.461282
 C         2.102097         2.532364        -3.677598
 C         2.577743         1.103578        -3.170891
 C         1.918699         0.194528        -2.163257
 C         1.446920         1.035447        -0.968325
 C         2.516854         2.170525        -0.911177
 C         1.261749         0.332249         0.413773
 O         0.326973         0.473202         1.144393
 H         4.289053         3.951596        -2.865924
 H         1.096303         3.059503        -3.662608
 H         2.732743         2.908981        -4.519143
 H         3.373057         0.501366        -3.662199
 H         1.057851        -0.271173        -2.731255
 H         2.494096        -0.672534        -1.719272
 H         0.405097         1.446946        -1.201499
 H         2.073880         3.140075        -0.631414
 H         3.463870         1.888788        -0.340006
 H         2.203056        -0.137326         0.803846
