19
Iteration:  3367
 O         4.327454         2.908338        -2.674129
 C         3.038936         2.494083        -2.444685
 C         2.101944         2.428594        -3.595686
 C         2.574523         1.122229        -3.013769
 C         1.819145         0.225480        -2.012506
 C         1.447248         1.312165        -0.822865
 C         2.581051         2.436915        -0.977073
 C         1.322704         0.377677         0.388988
 O         0.263200         0.100095         0.925361
 H         4.569402         3.873810        -2.754827
 H         1.091215         2.801958        -3.807339
 H         2.771860         2.664777        -4.520445
 H         3.362895         0.773126        -3.571326
 H         0.812340        -0.054156        -2.284817
 H         2.529502        -0.603990        -1.875305
 H         0.509681         1.905584        -1.089968
 H         2.077981         3.417372        -0.672068
 H         3.439275         2.269773        -0.290495
 H         2.267049         0.045954         0.908283
