19
Iteration:  2971
 O         4.303130         2.935184        -2.544826
 C         3.015158         2.385539        -2.331641
 C         1.971555         2.562316        -3.481805
 C         2.622359         1.181467        -3.162363
 C         2.066843         0.236315        -2.188686
 C         1.474074         1.116713        -1.003967
 C         2.512149         2.254525        -0.874037
 C         1.232273         0.327932         0.312234
 O         0.311239         0.474464         1.046425
 H         4.181811         3.087720        -3.502789
 H         0.923407         2.443165        -3.449658
 H         2.247515         2.648605        -4.508162
 H         3.428675         0.861533        -3.771331
 H         1.269725        -0.415704        -2.549470
 H         2.938706        -0.355564        -1.783526
 H         0.522497         1.547513        -1.249526
 H         2.056815         3.147789        -0.548090
 H         3.246607         2.033877        -0.168463
 H         2.133461        -0.313222         0.609373
