19
Iteration:  2127
 O         4.314616         2.866750        -2.615418
 C         3.043982         2.449587        -2.405984
 C         1.980885         2.487576        -3.542875
 C         2.549795         1.235429        -3.189456
 C         1.925819         0.333801        -2.095362
 C         1.500950         1.209910        -0.879406
 C         2.599356         2.358840        -1.002265
 C         1.306002         0.390250         0.419407
 O         0.251502         0.189628         0.943695
 H         4.665536         3.032945        -1.747366
 H         0.920201         2.555146        -3.411857
 H         2.298340         2.836870        -4.518097
 H         3.282081         0.714132        -3.804100
 H         0.952287        -0.233239        -2.279491
 H         2.822823        -0.246218        -1.861058
 H         0.518660         1.596940        -0.902567
 H         2.290655         3.259667        -0.453722
 H         3.497975         2.017009        -0.445309
 H         2.319047        -0.013373         0.844143
