19
Iteration:  2174
 O         4.276534         3.181997        -2.680735
 C         3.139942         2.277348        -2.301679
 C         1.950473         2.444675        -3.302688
 C         2.627350         1.057356        -3.128307
 C         1.863556         0.213813        -2.156071
 C         1.436479         1.227421        -1.006540
 C         2.646591         2.230142        -0.920414
 C         1.331113         0.541563         0.370151
 O         0.239729         0.236042         0.868014
 H         4.948832         2.582983        -3.064372
 H         0.986413         2.846247        -2.928433
 H         2.391421         2.922593        -4.177346
 H         2.943374         0.408568        -3.953293
 H         0.907982        -0.371296        -2.543757
 H         2.585144        -0.398406        -1.532672
 H         0.557116         1.866659        -1.076286
 H         2.273637         3.266825        -0.703932
 H         3.321987         1.967400        -0.155672
 H         2.385934         0.324729         0.810722
