19
Iteration:   112charge 0 multiplicity 1
 O         4.185200         3.068287        -2.365593
 C         2.975022         2.391581        -2.339551
 C         2.221741         2.321167        -3.644625
 C         2.778024         1.061183        -3.060187
 C         1.656816         0.363174        -2.307909
 C         1.200868         1.214261        -1.061951
 C         2.295558         2.321908        -0.948538
 C         1.427524         0.414512         0.177870
 O         0.716625         0.374161         1.160668
 H         4.761773         2.380582        -1.936703
 H         1.108405         2.264900        -3.598804
 H         2.404608         2.923716        -4.534235
 H         3.603594         0.401586        -3.499516
 H         0.788844         0.066285        -2.871452
 H         2.121771        -0.528624        -1.893365
 H         0.186808         1.431193        -1.059230
 H         1.926347         3.262301        -0.564340
 H         3.095957         1.925807        -0.317392
 H         2.426051        -0.236484         0.112313
