19
Iteration:  4150
 O         4.286176         2.844965        -2.481502
 C         2.916743         2.334908        -2.376939
 C         2.043023         2.397168        -3.532580
 C         2.756231         1.017039        -2.998719
 C         1.848718         0.259917        -2.165067
 C         1.370020         1.340681        -0.940828
 C         2.417347         2.408378        -0.973554
 C         1.421783         0.569634         0.268417
 O         0.466474         0.262263         0.923253
 H         4.352013         3.833539        -2.295522
 H         0.939700         2.407849        -3.609279
 H         2.357714         2.854956        -4.417551
 H         3.401349         0.599657        -3.853731
 H         0.814274        -0.055656        -2.474268
 H         2.365895        -0.826754        -1.989936
 H         0.358119         1.893101        -1.096875
 H         1.945632         3.364078        -0.568970
 H         3.231023         2.123473        -0.265984
 H         2.424936         0.158925         0.469485
