19
Iteration:    27
 O         4.346745         2.762291        -2.392088
 C         2.921728         2.449477        -2.387449
 C         1.927802         2.450063        -3.537436
 C         2.602031         1.157792        -3.115729
 C         2.009564         0.287181        -2.067563
 C         1.353144         1.205969        -1.077333
 C         2.327897         2.331967        -0.942463
 C         1.384912         0.444689         0.174369
 O         0.514456         0.377160         1.010941
 H         4.520652         3.269606        -3.174932
 H         0.908787         2.784539        -3.199894
 H         2.292671         2.721133        -4.561231
 H         3.461748         0.877333        -3.776268
 H         1.376405        -0.600359        -2.311937
 H         2.861088        -0.206533        -1.481959
 H         0.336150         1.510683        -1.284905
 H         1.924353         3.269122        -0.502570
 H         3.201333         2.128715        -0.233476
 H         2.525122         0.094469         0.405664
