19
Iteration:  3384charge 0 multiplicity 1
 O         4.353219         2.822907        -2.656224
 C         3.008180         2.410361        -2.367290
 C         2.032379         2.408213        -3.550046
 C         2.653650         1.130250        -2.990059
 C         1.809932         0.361543        -2.013602
 C         1.440948         1.283338        -0.916203
 C         2.485946         2.452429        -0.914703
 C         1.392560         0.533324         0.344696
 O         0.341339         0.116883         0.815418
 H         4.205923         3.820372        -2.628291
 H         1.011198         2.645515        -3.290681
 H         2.365681         2.712488        -4.531336
 H         3.291972         0.412992        -3.616990
 H         1.023094        -0.208324        -2.556496
 H         2.392560        -0.424222        -1.495841
 H         0.436282         1.604715        -1.024767
 H         2.113300         3.356820        -0.486331
 H         3.355431         2.060183        -0.375505
 H         2.324739         0.030771         0.670139
