19
Iteration:  4852charge 0 multiplicity 1
 O         4.341579         2.948491        -2.373698
 C         3.094298         2.319702        -2.382646
 C         2.019458         2.344632        -3.518514
 C         2.682722         1.099237        -3.083005
 C         1.834677         0.112881        -2.246409
 C         1.293420         1.090267        -1.076089
 C         2.310351         2.416400        -1.000595
 C         1.415533         0.430978         0.255623
 O         0.520028         0.540682         1.076558
 H         4.414646         3.885801        -2.396200
 H         0.987868         2.486220        -3.264825
 H         2.224411         2.894119        -4.384199
 H         3.404938         0.807240        -3.788530
 H         0.957861        -0.321990        -2.880174
 H         2.625713        -0.495407        -1.676665
 H         0.292503         1.375763        -1.402203
 H         1.773904         3.406810        -0.880000
 H         2.827290         2.373239        -0.064086
 H         2.422510        -0.000918         0.450038
