19
Iteration:  2505
 O         4.312987         2.986959        -2.374028
 C         3.054281         2.314571        -2.412868
 C         2.053756         2.532101        -3.526302
 C         2.601171         1.054146        -3.139954
 C         1.878674         0.171011        -2.221390
 C         1.385606         1.163528        -1.081124
 C         2.494382         2.215977        -0.988651
 C         1.321533         0.428126         0.269921
 O         0.427177         0.478090         1.142570
 H         4.161474         3.804818        -2.868276
 H         0.971590         2.626425        -3.339779
 H         2.274715         2.950809        -4.456858
 H         3.028046         0.625850        -4.064900
 H         0.928736        -0.375078        -2.537549
 H         2.579749        -0.519737        -1.833422
 H         0.392068         1.573330        -1.249296
 H         2.022516         3.146540        -0.628234
 H         3.475409         2.090458        -0.364358
 H         2.369398         0.091509         0.593937
