19
Iteration:  3303charge 0 multiplicity 1
 O         4.262592         2.896598        -2.546579
 C         3.052552         2.386951        -2.297058
 C         1.975166         2.458078        -3.400534
 C         2.628645         1.122460        -3.064643
 C         1.852350         0.148182        -2.135236
 C         1.467687         1.247059        -1.070432
 C         2.521531         2.229096        -0.929559
 C         1.399138         0.588658         0.250695
 O         0.391460         0.338506         0.877527
 H         4.089536         3.876497        -2.679248
 H         0.953057         2.720796        -3.174418
 H         2.273410         2.706105        -4.472019
 H         3.353047         0.625346        -3.602382
 H         0.936553        -0.242589        -2.557627
 H         2.548291        -0.583639        -1.664732
 H         0.416268         1.639815        -1.319933
 H         2.053205         3.146832        -0.289402
 H         3.197945         1.847007        -0.113194
 H         2.466316         0.341721         0.665158
