19
Iteration:  4143charge 0 multiplicity 1
 O         4.274759         2.853949        -2.454880
 C         2.967996         2.339819        -2.345752
 C         2.009714         2.344084        -3.527925
 C         2.708307         1.033019        -3.056299
 C         1.814540         0.265499        -2.162475
 C         1.411952         1.358850        -0.980990
 C         2.448966         2.397030        -0.958256
 C         1.402440         0.577323         0.227813
 O         0.475628         0.251070         0.916962
 H         4.234474         3.839300        -2.392303
 H         0.950461         2.359697        -3.255978
 H         2.394909         2.918204        -4.371120
 H         3.554996         0.563120        -3.604002
 H         0.850394        -0.047399        -2.576970
 H         2.199023        -0.605165        -1.621098
 H         0.403607         1.670783        -1.231977
 H         1.973041         3.362648        -0.778880
 H         3.310727         2.130698        -0.224671
 H         2.473509         0.340554         0.639887
