19
Iteration:  3060
 O         4.294830         3.012270        -2.462288
 C         2.929378         2.469075        -2.358092
 C         2.145841         2.455439        -3.675846
 C         2.738418         1.132291        -3.084725
 C         1.855976         0.190045        -2.305612
 C         1.369365         1.033418        -0.957421
 C         2.358836         2.184038        -0.964826
 C         1.254221         0.283968         0.265067
 O         0.509081         0.595054         1.239431
 H         4.222762         3.953646        -2.567252
 H         1.068814         2.661718        -3.645191
 H         2.651039         2.948487        -4.521807
 H         3.679671         0.607930        -3.584118
 H         1.005617        -0.141866        -2.902880
 H         2.586726        -0.694456        -2.256329
 H         0.307602         1.378572        -1.217982
 H         2.017738         3.150950        -0.503825
 H         3.210626         1.839631        -0.404915
 H         2.078097        -0.384839         0.493669
