19
Iteration:  4559charge 0 multiplicity 1
 O         4.349792         2.816658        -2.650139
 C         3.042432         2.426939        -2.362720
 C         2.029931         2.385741        -3.471375
 C         2.766964         1.042447        -2.995418
 C         1.792034         0.322738        -2.059099
 C         1.332712         1.305895        -0.987057
 C         2.445474         2.453727        -0.943156
 C         1.363750         0.593757         0.323486
 O         0.404964         0.153766         0.878039
 H         4.288170         3.776587        -2.638491
 H         1.038291         2.257137        -3.134622
 H         2.248916         2.830462        -4.497239
 H         3.407659         0.463941        -3.806792
 H         0.953083        -0.112319        -2.581026
 H         2.210016        -0.426845        -1.439023
 H         0.229838         1.474192        -1.087299
 H         2.132116         3.484147        -0.815398
 H         3.277012         2.088711        -0.322389
 H         2.378882         0.263553         0.945789
