19
Iteration:  3388
 O         4.340489         2.821903        -2.632228
 C         3.038846         2.377531        -2.395160
 C         2.002261         2.406473        -3.524233
 C         2.691272         1.092685        -3.016683
 C         1.801483         0.359091        -2.003471
 C         1.379441         1.269627        -0.906728
 C         2.495668         2.462699        -0.905012
 C         1.386330         0.550719         0.310808
 O         0.373994         0.128032         0.797278
 H         4.325593         3.768290        -2.653310
 H         0.958687         2.590339        -3.202566
 H         2.256713         2.931177        -4.539616
 H         3.369897         0.535062        -3.578301
 H         0.969037        -0.168362        -2.494468
 H         2.522038        -0.390001        -1.574632
 H         0.358417         1.745526        -0.990948
 H         2.081861         3.360567        -0.450283
 H         3.319304         2.071885        -0.311898
 H         2.379491         0.128294         0.763431
