19
Iteration:  3681charge 0 multiplicity 1
 O         4.328481         3.069616        -2.462020
 C         3.005294         2.461801        -2.437533
 C         2.122411         2.498236        -3.562649
 C         2.631984         1.043128        -3.172634
 C         1.875754         0.126337        -2.201342
 C         1.424998         1.045380        -1.006735
 C         2.511139         2.305909        -0.965728
 C         1.271288         0.359014         0.368000
 O         0.336188         0.481022         1.171594
 H         4.215039         3.807698        -3.056183
 H         1.043179         2.775142        -3.498338
 H         2.532666         2.602680        -4.613078
 H         3.228842         0.693849        -4.098043
 H         0.883895        -0.289943        -2.586327
 H         2.590245        -0.729992        -2.112796
 H         0.503897         1.550061        -1.335750
 H         2.127961         3.032619        -0.246326
 H         3.449698         1.926127        -0.338896
 H         2.189523        -0.239363         0.622291
