19
Iteration:   264charge 0 multiplicity 1
 O         4.221118         3.002982        -2.407022
 C         2.967857         2.428081        -2.356681
 C         2.035204         2.466346        -3.619097
 C         2.715802         1.210611        -3.101498
 C         1.802328         0.305656        -2.271171
 C         1.416228         1.047675        -0.986627
 C         2.446729         2.257384        -0.954529
 C         1.319506         0.228229         0.246197
 O         0.531532         0.501118         1.134806
 H         4.798871         2.574839        -3.029869
 H         0.923352         2.565034        -3.338734
 H         2.585439         3.082570        -4.382096
 H         3.569811         0.648487        -3.544342
 H         0.877208         0.092763        -2.745536
 H         2.310249        -0.671174        -2.147995
 H         0.431271         1.451861        -1.165889
 H         2.057953         3.220018        -0.682400
 H         3.215474         2.183031        -0.162201
 H         2.257642        -0.521225         0.418541
