19
Iteration:  2580charge 0 multiplicity 1
 O         4.364740         2.985433        -2.556548
 C         3.096628         2.348668        -2.385371
 C         1.907082         2.426082        -3.401522
 C         2.667212         1.051288        -3.060855
 C         1.836761         0.191399        -2.112618
 C         1.417204         1.258085        -1.058451
 C         2.550100         2.320401        -0.915748
 C         1.331235         0.388924         0.177661
 O         0.363985         0.413164         0.982896
 H         4.256391         3.956230        -2.437860
 H         0.908248         2.702338        -3.019425
 H         2.055467         2.778463        -4.396205
 H         3.265490         0.571448        -3.897446
 H         0.897071        -0.359321        -2.621531
 H         2.429546        -0.606428        -1.480622
 H         0.410361         1.702848        -1.062325
 H         2.316987         3.370677        -0.612112
 H         3.418168         2.009683        -0.340245
 H         2.227126        -0.311986         0.458052
