19
Iteration:  4650
 O         4.325782         2.900779        -2.692153
 C         3.069435         2.397210        -2.333576
 C         1.970470         2.377846        -3.361725
 C         2.683766         1.097669        -3.068894
 C         1.905677         0.197424        -2.070201
 C         1.375253         1.200822        -1.008232
 C         2.509638         2.354059        -0.915669
 C         1.371296         0.569741         0.338769
 O         0.321767         0.335847         0.858679
 H         4.217301         3.853032        -2.865962
 H         0.879303         2.498508        -2.993120
 H         2.330790         2.818112        -4.275751
 H         3.524484         0.644549        -3.624053
 H         1.037853        -0.343275        -2.553929
 H         2.676371        -0.528569        -1.739124
 H         0.386660         1.664089        -1.182523
 H         1.925031         3.106600        -0.510887
 H         3.254429         1.982515        -0.222272
 H         2.296067         0.187925         0.661982
