19
Iteration:  4809charge 0 multiplicity 1
 O         4.320013         2.916016        -2.460679
 C         2.887939         2.415456        -2.355222
 C         2.130582         2.502137        -3.730850
 C         2.705184         1.120603        -3.132736
 C         1.928222         0.184632        -2.182343
 C         1.325725         1.051878        -1.060547
 C         2.362301         2.255540        -0.990726
 C         1.325092         0.358881         0.365894
 O         0.449034         0.557587         1.182311
 H         4.128406         3.864589        -2.410299
 H         1.097214         2.839156        -3.763950
 H         2.593460         2.806482        -4.637724
 H         3.592441         0.776586        -3.571910
 H         1.188856        -0.454082        -2.655801
 H         2.880244        -0.229753        -1.711791
 H         0.311506         1.417276        -1.049859
 H         1.961242         3.155455        -0.464319
 H         3.254301         1.927385        -0.451794
 H         2.219419        -0.339138         0.548423
