19
Iteration:  3149
 O         4.226395         2.940753        -2.353845
 C         2.900631         2.439705        -2.364456
 C         2.165391         2.565985        -3.635681
 C         2.724906         1.172555        -3.183332
 C         1.831046         0.130490        -2.358463
 C         1.420923         0.918110        -1.112355
 C         2.300351         2.158703        -0.959409
 C         1.349736         0.328125         0.359470
 O         0.555639         0.717096         1.238808
 H         4.410954         3.802290        -2.661431
 H         1.027573         2.741814        -3.617960
 H         2.857429         3.201310        -4.210045
 H         3.465273         0.641669        -3.718815
 H         1.062556        -0.507266        -2.806122
 H         2.534771        -0.672213        -1.916400
 H         0.322871         1.285870        -1.434802
 H         1.808287         3.164181        -0.637920
 H         3.115885         1.825135        -0.361153
 H         2.082393        -0.552745         0.601310
