19
Iteration:  2303
 O         4.237090         2.819461        -2.514895
 C         2.917719         2.332659        -2.394486
 C         2.101443         2.549243        -3.680704
 C         2.615324         1.145547        -3.133423
 C         1.865406         0.269480        -2.129938
 C         1.481174         1.176689        -0.965008
 C         2.431236         2.363968        -0.912403
 C         1.347321         0.537293         0.344066
 O         0.422981         0.274291         1.033478
 H         4.556497         3.388814        -1.806905
 H         0.961053         2.654637        -3.699410
 H         2.665622         2.835092        -4.533781
 H         3.504685         0.778125        -3.682961
 H         1.015518        -0.320982        -2.428405
 H         2.593136        -0.428292        -1.845860
 H         0.542341         1.646949        -1.313192
 H         2.189694         3.376327        -0.481776
 H         3.415215         2.018021        -0.409657
 H         2.386130         0.056512         0.698416
