19
Iteration:   552charge 0 multiplicity 1
 O         4.375774         2.750601        -2.450029
 C         3.037820         2.358886        -2.391728
 C         1.920292         2.557490        -3.514109
 C         2.549274         1.156304        -3.102155
 C         1.706252         0.345806        -2.176248
 C         1.479407         1.260929        -0.938441
 C         2.439734         2.455933        -1.020141
 C         1.534412         0.515493         0.396347
 O         0.482475         0.092420         0.831863
 H         4.532177         3.384040        -1.673893
 H         0.962306         2.732467        -3.194846
 H         2.134453         2.877775        -4.499123
 H         2.981956         0.574321        -3.953791
 H         0.719898        -0.069124        -2.532366
 H         2.234192        -0.535252        -1.647947
 H         0.464051         1.586042        -1.113748
 H         1.888656         3.379860        -0.847721
 H         3.315548         2.339070        -0.276714
 H         2.552323         0.427562         0.912757
