19
Iteration:  3206charge 0 multiplicity 1
 O         4.244066         3.011299        -2.413537
 C         3.020699         2.370358        -2.312232
 C         1.996320         2.385846        -3.423017
 C         2.715912         1.107440        -3.128695
 C         1.862536         0.123343        -2.265350
 C         1.357242         1.135616        -1.169898
 C         2.483394         2.220987        -0.862246
 C         1.265344         0.381387         0.136192
 O         0.553807         0.620893         1.104668
 H         4.184772         3.984207        -2.660972
 H         0.939374         2.423442        -3.203203
 H         2.218507         2.686729        -4.476471
 H         3.603891         0.846180        -3.646921
 H         0.980434        -0.294238        -2.776950
 H         2.470042        -0.656279        -1.778979
 H         0.344163         1.597241        -1.323418
 H         2.320327         3.218961        -0.486310
 H         3.287598         1.865816        -0.317356
 H         1.986648        -0.469446         0.255478
