19
Iteration:  4763charge 0 multiplicity 1
 O         4.266933         3.028400        -2.511373
 C         3.124014         2.397868        -2.377236
 C         2.017583         2.350585        -3.378519
 C         2.752564         1.052069        -3.084024
 C         1.848961         0.147390        -2.219250
 C         1.374402         1.163088        -1.034812
 C         2.426992         2.234220        -1.001645
 C         1.342823         0.407043         0.270939
 O         0.412141         0.579045         1.034893
 H         3.954595         3.930995        -2.574079
 H         1.013871         2.344994        -3.146922
 H         2.221124         2.874762        -4.260642
 H         3.435267         0.563134        -3.691381
 H         0.975615        -0.227140        -2.753278
 H         2.643047        -0.570084        -1.890755
 H         0.350238         1.516245        -1.181576
 H         1.946037         3.215428        -0.726848
 H         3.244228         2.014554        -0.349121
 H         2.222347        -0.392594         0.428476
