19
Iteration:  2159
 O         4.246360         3.053657        -2.729158
 C         3.133129         2.399541        -2.342870
 C         2.039881         2.498746        -3.295633
 C         2.560604         1.104638        -3.052710
 C         1.865131         0.168642        -2.064973
 C         1.463406         1.207986        -1.012747
 C         2.572544         2.279301        -0.913625
 C         1.323073         0.548570         0.288748
 O         0.287421         0.232806         0.869322
 H         5.054626         2.482409        -2.556535
 H         1.005612         2.649127        -3.040409
 H         2.206847         2.932770        -4.296973
 H         3.243061         0.853438        -3.841484
 H         0.970221        -0.283335        -2.520146
 H         2.561063        -0.587643        -1.808951
 H         0.493854         1.533769        -1.350282
 H         2.215865         3.190974        -0.396071
 H         3.450446         1.870671        -0.242538
 H         2.271833         0.299442         0.859725
