19
Iteration:  1854charge 0 multiplicity 1
 O         4.272309         2.996794        -2.537349
 C         3.109740         2.374486        -2.315179
 C         1.953362         2.505358        -3.275103
 C         2.559596         1.139445        -3.128636
 C         1.765894         0.274511        -2.278713
 C         1.419542         1.160272        -1.027883
 C         2.623352         2.251653        -0.953265
 C         1.342814         0.378316         0.159130
 O         0.452979         0.388032         1.000574
 H         4.960167         2.763837        -1.884599
 H         1.017947         2.751177        -2.796335
 H         2.051057         2.945795        -4.299023
 H         3.133681         0.723512        -3.977634
 H         0.778223        -0.130227        -2.659771
 H         2.386234        -0.561346        -1.898930
 H         0.516030         1.680632        -1.199905
 H         2.158380         3.166031        -0.511668
 H         3.495536         1.806831        -0.260355
 H         2.122527        -0.295719         0.240830
