19
Iteration:   510charge 0 multiplicity 1
 O         4.394291         2.699761        -2.628615
 C         3.056470         2.379377        -2.450994
 C         2.049346         2.606186        -3.522764
 C         2.532988         1.180589        -3.070348
 C         1.796373         0.427171        -1.995414
 C         1.310597         1.371824        -0.945584
 C         2.435323         2.466583        -0.951395
 C         1.385036         0.497831         0.343387
 O         0.474076        -0.108479         0.932666
 H         4.558762         3.668402        -2.538830
 H         1.118167         2.958000        -3.409996
 H         2.446818         2.867792        -4.457370
 H         3.303104         0.674333        -3.740452
 H         1.029662        -0.288472        -2.388897
 H         2.477688        -0.223486        -1.542865
 H         0.302194         1.804141        -1.018021
 H         2.050081         3.468650        -0.765089
 H         3.136078         2.118949        -0.297334
 H         2.406617         0.323145         0.738633
