19
Iteration:   243charge 0 multiplicity 1
 O         4.352998         3.003218        -2.260819
 C         3.019339         2.401817        -2.398484
 C         2.018102         2.506723        -3.501794
 C         2.617158         1.141655        -3.200900
 C         1.823271         0.159974        -2.291101
 C         1.319425         1.170345        -1.134351
 C         2.271315         2.314857        -0.983044
 C         1.355747         0.358153         0.213306
 O         0.631359         0.443717         1.204918
 H         4.947129         2.697058        -3.005857
 H         0.892265         2.649226        -3.230956
 H         2.458414         2.644064        -4.517122
 H         3.238246         0.683996        -3.983367
 H         1.126432        -0.472790        -2.785540
 H         2.539541        -0.455001        -1.759331
 H         0.369654         1.619597        -1.288221
 H         1.890071         3.216909        -0.510396
 H         3.129063         2.041119        -0.348479
 H         2.086603        -0.395888         0.229389
