19
Iteration:  2778
 O         4.431925         2.778212        -2.503426
 C         3.078514         2.358357        -2.387072
 C         2.002998         2.514879        -3.515127
 C         2.573609         1.081305        -3.077341
 C         1.712333         0.284836        -2.103411
 C         1.320477         1.380728        -1.047669
 C         2.502286         2.383177        -1.013370
 C         1.324040         0.753228         0.433251
 O         0.527359        -0.034582         0.878683
 H         4.291055         3.736416        -2.447684
 H         0.954435         2.650807        -3.385810
 H         2.419733         2.720357        -4.434363
 H         3.321111         0.585693        -3.596743
 H         0.850546        -0.237252        -2.648745
 H         2.247473        -0.449997        -1.428893
 H         0.291350         1.788523        -1.210591
 H         2.156595         3.443505        -0.720736
 H         3.126677         2.017046        -0.178048
 H         2.345187         0.760176         0.902767
