19
Iteration:  3742charge 0 multiplicity 1
 O         4.315927         3.025771        -2.401554
 C         3.008835         2.388344        -2.371961
 C         2.027969         2.483453        -3.527115
 C         2.691600         1.102613        -3.071463
 C         1.836323         0.144805        -2.222524
 C         1.335594         1.046137        -1.072880
 C         2.451571         2.234930        -0.948051
 C         1.303550         0.415501         0.245667
 O         0.502850         0.534880         1.111231
 H         4.453687         3.400471        -3.264800
 H         0.967926         2.773693        -3.430539
 H         2.449913         2.762008        -4.477722
 H         3.512117         0.653071        -3.584701
 H         0.938427        -0.228091        -2.663997
 H         2.491488        -0.693877        -1.933622
 H         0.308402         1.517722        -1.372380
 H         1.748793         3.082962        -0.720999
 H         3.395504         2.065944        -0.358113
 H         2.285878        -0.077739         0.419098
