19
Iteration:  4114
 O         4.430161         2.988088        -2.555438
 C         3.094063         2.401700        -2.442813
 C         2.082453         2.438475        -3.520087
 C         2.640441         1.049807        -3.054171
 C         1.805655         0.190708        -2.103525
 C         1.349495         1.317672        -0.905863
 C         2.405026         2.334852        -1.022310
 C         1.331326         0.550635         0.355472
 O         0.377343         0.144399         0.982751
 H         4.217661         3.916640        -2.877001
 H         1.058139         2.698911        -3.264731
 H         2.563862         2.681412        -4.546514
 H         3.159878         0.511503        -3.754776
 H         0.902046        -0.137745        -2.640585
 H         2.264228        -0.573584        -1.522741
 H         0.355282         1.486425        -1.153518
 H         2.060897         3.334219        -0.799673
 H         3.180524         2.147173        -0.363384
 H         2.336791         0.410116         0.739940
