19
Iteration:  2560
 O         4.283826         2.911907        -2.610787
 C         2.979325         2.409117        -2.327885
 C         2.021374         2.362816        -3.500815
 C         2.691293         1.139554        -3.122167
 C         1.909040         0.271366        -2.264912
 C         1.436989         1.187853        -0.929859
 C         2.583179         2.284708        -0.923944
 C         1.320084         0.415666         0.306878
 O         0.323359         0.431112         1.074444
 H         4.284145         3.822780        -2.308360
 H         0.969084         2.371806        -3.286058
 H         2.362285         2.906370        -4.357656
 H         3.585663         0.822381        -3.737905
 H         0.850757         0.013059        -2.725695
 H         2.379783        -0.681514        -1.965978
 H         0.464994         1.627521        -1.231480
 H         2.046250         3.144918        -0.495832
 H         3.501512         2.030271        -0.244074
 H         2.060219        -0.388987         0.420221
