19
Iteration:  4873charge 0 multiplicity 1
 O         4.286109         2.905041        -2.389790
 C         2.994219         2.356116        -2.425159
 C         2.092248         2.394281        -3.477330
 C         2.752061         1.072015        -3.045461
 C         1.842353         0.221709        -2.232287
 C         1.356497         1.153417        -1.083768
 C         2.254407         2.287776        -1.036353
 C         1.444201         0.505090         0.274238
 O         0.517977         0.491629         1.069421
 H         4.126871         3.878680        -2.522235
 H         1.055589         2.582386        -3.374866
 H         2.488247         2.673813        -4.396739
 H         3.496783         0.616273        -3.616391
 H         0.781846        -0.038953        -2.665246
 H         2.405695        -0.665350        -1.741082
 H         0.344882         1.463574        -1.444646
 H         1.652465         3.169292        -0.623876
 H         3.047566         2.242024        -0.313161
 H         2.425603        -0.143426         0.476070
