19
Iteration:  2342
 O         4.437349         2.918407        -2.493552
 C         3.076342         2.351652        -2.418027
 C         2.076671         2.518913        -3.647337
 C         2.679484         1.129217        -3.037078
 C         1.767895         0.254461        -2.173616
 C         1.376542         1.201427        -0.988424
 C         2.315673         2.352305        -1.045638
 C         1.333930         0.393958         0.320176
 O         0.458480         0.297362         1.134235
 H         4.095448         3.837311        -2.550499
 H         1.167829         2.943005        -3.313556
 H         2.323749         2.840476        -4.660200
 H         3.311284         0.473810        -3.598118
 H         0.829811        -0.113578        -2.639769
 H         2.353830        -0.645745        -1.691057
 H         0.306393         1.479642        -0.962035
 H         1.793071         3.223386        -0.710694
 H         3.141494         2.213794        -0.339388
 H         2.350561        -0.122882         0.430314
