19
Iteration:  4164charge 0 multiplicity 1
 O         4.308137         2.854952        -2.556161
 C         3.013913         2.447104        -2.393485
 C         2.108370         2.424314        -3.631162
 C         2.692997         1.133615        -3.025750
 C         1.781719         0.241722        -2.114391
 C         1.345787         1.233383        -0.967812
 C         2.380660         2.418245        -0.989185
 C         1.413048         0.464673         0.362187
 O         0.425016         0.261254         1.008508
 H         4.370553         3.739262        -2.210815
 H         1.056235         2.627349        -3.543861
 H         2.669692         2.625948        -4.511624
 H         3.468098         0.618320        -3.620200
 H         1.002638        -0.151304        -2.786734
 H         2.350792        -0.623731        -1.604975
 H         0.276265         1.458062        -1.099160
 H         2.034034         3.418316        -0.665013
 H         3.300076         2.103514        -0.334617
 H         2.417061        -0.026057         0.586687
