19
Iteration:  4214
 O         4.312728         2.898973        -2.446650
 C         3.002828         2.373625        -2.431016
 C         2.108583         2.494453        -3.537605
 C         2.684868         1.123745        -3.077343
 C         1.821901         0.238641        -2.151781
 C         1.388606         1.197180        -1.007502
 C         2.381316         2.343699        -1.053036
 C         1.367741         0.432807         0.332302
 O         0.417983         0.330321         1.099970
 H         4.224991         3.653071        -3.063934
 H         1.022735         2.793913        -3.225192
 H         2.499987         2.825378        -4.494984
 H         3.465241         0.463871        -3.642515
 H         1.078569        -0.388357        -2.717177
 H         2.457498        -0.591396        -1.836862
 H         0.343005         1.461862        -1.349023
 H         1.940628         3.347436        -0.811799
 H         3.294201         2.220615        -0.529929
 H         2.426789         0.101697         0.673628
