19
Iteration:  2017charge 0 multiplicity 1
 O         4.345504         3.066868        -2.353507
 C         3.040981         2.356008        -2.374044
 C         2.176573         2.507192        -3.705449
 C         2.414045         1.159704        -3.153320
 C         1.699991         0.313090        -2.182107
 C         1.346094         1.187094        -0.912391
 C         2.483175         2.331955        -1.041181
 C         1.407988         0.324396         0.319768
 O         0.496575         0.243023         1.089468
 H         5.074143         2.451857        -2.674743
 H         1.263178         3.141060        -3.749168
 H         2.865612         2.776596        -4.456909
 H         2.930715         0.362589        -3.790850
 H         0.725091        -0.037696        -2.632556
 H         2.362622        -0.569513        -2.010867
 H         0.397458         1.636957        -0.914347
 H         1.941498         3.228766        -0.831777
 H         3.275302         2.208425        -0.401632
 H         2.378506        -0.295811         0.615892
