19
Iteration:  4359charge 0 multiplicity 1
 O         4.288019         2.996630        -2.527992
 C         3.069366         2.321745        -2.357581
 C         2.008048         2.528554        -3.397412
 C         2.651957         1.077002        -3.130728
 C         1.946970         0.113370        -2.170969
 C         1.414331         1.064175        -1.098902
 C         2.453983         2.246035        -0.965509
 C         1.350034         0.502062         0.357366
 O         0.357921         0.520734         1.001631
 H         4.278066         3.959524        -2.536056
 H         1.067507         2.563233        -3.007417
 H         2.029637         2.946663        -4.459854
 H         3.297458         0.756318        -3.814122
 H         1.126793        -0.412316        -2.683767
 H         2.626196        -0.656805        -1.733755
 H         0.373958         1.452674        -1.448979
 H         2.161637         3.252577        -0.573322
 H         3.207787         1.798724        -0.343178
 H         2.275681        -0.160109         0.521493
