19
Iteration:  1936charge 0 multiplicity 1
 O         4.359639         2.871074        -2.368449
 C         3.043615         2.275328        -2.322384
 C         2.051679         2.555375        -3.469846
 C         2.565752         1.169533        -3.164189
 C         1.721077         0.337724        -2.262669
 C         1.378317         1.204174        -1.072460
 C         2.453997         2.295634        -1.027259
 C         1.403319         0.320993         0.263573
 O         0.529283         0.357005         1.083175
 H         4.083291         3.804611        -2.613568
 H         1.021539         2.889076        -3.178575
 H         2.423514         2.924654        -4.494546
 H         3.121344         0.686014        -3.903679
 H         0.863720        -0.161231        -2.609848
 H         2.379469        -0.419936        -1.848307
 H         0.320841         1.706276        -1.154472
 H         2.075120         3.255581        -0.675748
 H         3.208389         2.099438        -0.281983
 H         2.390559        -0.336240         0.328410
