19
Iteration:  2051
 O         4.304573         2.926102        -2.407072
 C         3.009909         2.369328        -2.378885
 C         2.060422         2.429402        -3.483017
 C         2.638202         1.137434        -3.019233
 C         1.719259         0.343097        -2.252443
 C         1.350313         1.299142        -1.043557
 C         2.519745         2.344147        -0.996824
 C         1.377497         0.444336         0.278708
 O         0.494871         0.192814         1.047970
 H         4.438619         2.737384        -3.372904
 H         1.036730         2.638674        -3.211611
 H         2.463588         2.984359        -4.248384
 H         3.422212         0.617031        -3.611597
 H         0.778600         0.157197        -2.864583
 H         2.120280        -0.678661        -2.095432
 H         0.393275         1.700234        -1.130239
 H         2.184445         3.331057        -0.645984
 H         3.304639         2.080444        -0.373222
 H         2.479413         0.133288         0.387181
