19
Iteration:  2735charge 0 multiplicity 1
 O         4.382369         2.858300        -2.590863
 C         3.033845         2.347637        -2.378995
 C         2.158478         2.477495        -3.665829
 C         2.617760         1.158983        -3.106049
 C         1.641515         0.285076        -2.120633
 C         1.492516         1.313659        -0.790705
 C         2.506778         2.455156        -0.986080
 C         1.365027         0.568292         0.541027
 O         0.326030        -0.038156         0.907892
 H         4.228574         3.609025        -3.168148
 H         1.108077         2.609267        -3.814981
 H         2.733728         2.828582        -4.454615
 H         3.273415         0.752102        -3.798133
 H         0.533820         0.163928        -2.518733
 H         2.355758        -0.586227        -2.004261
 H         0.482387         1.751498        -1.020129
 H         2.105178         3.456937        -0.751235
 H         3.401846         2.300276        -0.436280
 H         2.169178         0.705286         1.317341
