19
Iteration:  4952
 O         4.328033         2.945531        -2.527352
 C         3.079138         2.381246        -2.349736
 C         2.074237         2.264333        -3.533056
 C         2.691164         1.095056        -3.050418
 C         1.837198         0.223107        -2.162746
 C         1.390295         1.247246        -1.022295
 C         2.335127         2.384037        -0.960269
 C         1.418486         0.451486         0.298269
 O         0.408354         0.381543         1.014693
 H         4.126693         3.882808        -2.683753
 H         1.006370         2.404420        -3.262910
 H         2.397075         2.841426        -4.449305
 H         3.439610         0.555350        -3.751706
 H         0.791900         0.061441        -2.516211
 H         2.497832        -0.598416        -1.602420
 H         0.382363         1.555283        -1.202270
 H         1.702532         3.265642        -0.837154
 H         3.077066         2.312840        -0.171342
 H         2.410348        -0.066328         0.377416
