19
Iteration:   480
 O         4.421554         2.948759        -2.649350
 C         3.155218         2.403056        -2.432336
 C         2.105607         2.562860        -3.484569
 C         2.517856         1.104826        -3.062150
 C         1.626683         0.332627        -2.137764
 C         1.425202         1.288018        -0.944899
 C         2.511087         2.478450        -0.962183
 C         1.339471         0.481276         0.534521
 O         0.392117        -0.120782         0.936013
 H         4.524204         3.382182        -3.525005
 H         1.070624         2.989891        -3.442314
 H         2.570789         2.734748        -4.485092
 H         3.167858         0.591272        -3.795864
 H         0.688579        -0.035843        -2.611712
 H         2.108086        -0.576744        -1.668566
 H         0.395856         1.752112        -0.936322
 H         2.122290         3.511445        -0.716019
 H         3.330061         2.085635        -0.286922
 H         2.348791         0.497636         1.087556
