19
Iteration:   938
 O         4.375396         2.823052        -2.731044
 C         3.078721         2.398061        -2.308163
 C         2.082696         2.543933        -3.422532
 C         2.626914         1.198521        -3.058563
 C         1.633995         0.321050        -2.238132
 C         1.376920         1.291621        -0.893867
 C         2.471328         2.348146        -0.886617
 C         1.400084         0.454103         0.315013
 O         0.451110         0.034467         0.933713
 H         4.545689         3.736565        -2.434564
 H         1.029519         2.816491        -3.090953
 H         2.496841         3.016691        -4.299695
 H         3.410449         0.746651        -3.651373
 H         0.584122         0.349579        -2.731640
 H         2.037443        -0.675769        -2.072342
 H         0.421560         1.899121        -0.959046
 H         2.057567         3.271186        -0.405289
 H         3.215439         2.110931        -0.104743
 H         2.449501         0.332052         0.744110
