19
Iteration:  2813charge 0 multiplicity 1
 O         4.419705         2.695882        -2.598957
 C         3.006934         2.384186        -2.404007
 C         2.005156         2.478738        -3.530295
 C         2.572540         1.100896        -2.976988
 C         1.783179         0.340491        -2.002296
 C         1.348403         1.400898        -0.942074
 C         2.456664         2.534914        -0.967364
 C         1.441690         0.606686         0.426116
 O         0.421974        -0.020861         0.763152
 H         4.621542         3.616645        -2.343928
 H         0.948794         2.740479        -3.563548
 H         2.407939         2.674533        -4.530622
 H         3.375648         0.687256        -3.606539
 H         0.876547        -0.225564        -2.527433
 H         2.527669        -0.477766        -1.685963
 H         0.305754         1.686700        -1.169135
 H         1.973125         3.512222        -0.845775
 H         3.195186         2.411648        -0.154054
 H         2.443456         0.402176         0.888789
