19
Iteration:  2837
 O         4.420879         2.808703        -2.621513
 C         3.099844         2.376362        -2.476292
 C         2.145860         2.502611        -3.589342
 C         2.519660         1.101926        -3.050507
 C         1.749121         0.391654        -1.927977
 C         1.532518         1.373158        -0.834635
 C         2.437972         2.596543        -1.068107
 C         1.330468         0.426194         0.501892
 O         0.300149        -0.068184         0.841697
 H         4.403851         3.761078        -2.910496
 H         1.069132         2.808636        -3.598080
 H         2.443916         2.598228        -4.713520
 H         3.263149         0.612239        -3.787106
 H         0.746599        -0.081941        -2.307536
 H         2.457858        -0.481904        -1.632134
 H         0.486810         1.592141        -0.840641
 H         1.925385         3.477985        -0.876420
 H         3.146327         2.440963        -0.286446
 H         2.254130         0.194970         1.098127
