19
Iteration:  4572
 O         4.312779         2.865273        -2.624506
 C         3.011429         2.386086        -2.398347
 C         2.059201         2.347158        -3.510501
 C         2.675996         1.085054        -2.971397
 C         1.796634         0.240965        -2.064689
 C         1.422918         1.345460        -0.946436
 C         2.486150         2.432763        -0.992097
 C         1.364851         0.556279         0.368773
 O         0.350516         0.150130         0.890746
 H         4.349549         3.853384        -2.671929
 H         1.001750         2.650468        -3.415782
 H         2.549699         2.733642        -4.469490
 H         3.465145         0.659214        -3.461524
 H         0.874475        -0.084071        -2.583806
 H         2.401837        -0.611944        -1.768707
 H         0.492969         1.874304        -1.150264
 H         2.113329         3.344251        -0.619636
 H         3.323424         2.154012        -0.347896
 H         2.520699         0.450556         0.734590
