19
Iteration:  4470charge 0 multiplicity 1
 O         4.334680         2.888700        -2.548756
 C         3.020067         2.390798        -2.373543
 C         2.104051         2.436357        -3.593229
 C         2.691918         1.105764        -3.037051
 C         1.790175         0.214170        -2.128117
 C         1.422434         1.240769        -0.997009
 C         2.402968         2.349656        -0.977138
 C         1.331581         0.575082         0.341212
 O         0.408247         0.200125         1.043900
 H         4.221318         3.830211        -2.759018
 H         1.067668         2.700875        -3.250968
 H         2.462985         2.711384        -4.537329
 H         3.487734         0.761921        -3.877329
 H         0.886005        -0.078724        -2.653889
 H         2.218245        -0.755224        -1.810538
 H         0.451343         1.870939        -1.199265
 H         2.111909         3.371719        -0.756257
 H         3.262806         2.072861        -0.357125
 H         2.302114         0.339612         0.794967
