19
Iteration:  3745
 O         4.315297         3.026416        -2.391314
 C         3.010621         2.389458        -2.402269
 C         2.052436         2.503320        -3.537395
 C         2.704172         1.118437        -3.093041
 C         1.834612         0.158948        -2.214898
 C         1.343830         1.019026        -1.056603
 C         2.437931         2.228121        -0.951732
 C         1.293397         0.399082         0.258843
 O         0.492552         0.533660         1.135696
 H         4.452789         3.427674        -3.301627
 H         0.979272         2.723460        -3.433054
 H         2.469571         2.771607        -4.559885
 H         3.484289         0.600918        -3.750632
 H         0.903850        -0.211570        -2.663041
 H         2.450719        -0.702325        -1.823081
 H         0.285167         1.459728        -1.356136
 H         1.844125         3.108839        -0.710450
 H         3.303481         2.108671        -0.440358
 H         2.295452        -0.028939         0.442409
