19
Iteration:  3239
 O         4.286100         2.963079        -2.638476
 C         3.058040         2.426518        -2.369839
 C         2.089127         2.567188        -3.570379
 C         2.670078         1.150759        -3.157006
 C         1.936905         0.207271        -2.181922
 C         1.440773         1.049683        -1.007419
 C         2.444727         2.313991        -0.927581
 C         1.168896         0.203686         0.349513
 O         0.391448         0.518650         1.169606
 H         4.516577         3.864566        -2.430409
 H         1.037330         2.640031        -3.450760
 H         2.483370         2.988494        -4.544314
 H         3.558423         0.842524        -3.685923
 H         1.284222        -0.549115        -2.661164
 H         2.678080        -0.488273        -1.696522
 H         0.381251         1.453448        -1.053823
 H         2.054969         3.292191        -0.469544
 H         3.212935         1.925441        -0.265143
 H         1.762355        -0.691455         0.468366
