19
Iteration:  1801charge 0 multiplicity 1
 O         4.301906         2.789044        -2.572519
 C         3.019259         2.428862        -2.349249
 C         1.898585         2.746449        -3.495891
 C         2.607460         1.253663        -3.193638
 C         1.933227         0.272082        -2.305706
 C         1.499110         1.153141        -0.955545
 C         2.617790         2.162989        -0.871304
 C         1.291750         0.329591         0.394908
 O         0.319608         0.298452         1.059753
 H         4.333664         3.721079        -2.889665
 H         0.950238         3.112643        -3.352725
 H         2.365190         3.201146        -4.410513
 H         3.268653         0.858573        -4.029680
 H         0.953382        -0.035756        -2.701953
 H         2.582533        -0.535360        -2.043009
 H         0.501555         1.572655        -1.142368
 H         2.520688         3.038293        -0.168772
 H         3.400828         1.627240        -0.388089
 H         2.283547        -0.121157         0.983199
