19
Iteration:  2270charge 0 multiplicity 1
 O         4.480938         2.976845        -2.617211
 C         3.083861         2.321080        -2.402814
 C         1.951850         2.444400        -3.381980
 C         2.657190         1.094714        -3.080930
 C         1.809454         0.202316        -2.127294
 C         1.428667         1.215163        -1.031161
 C         2.463112         2.364506        -0.979014
 C         1.321558         0.540599         0.313890
 O         0.332310         0.250200         1.008639
 H         4.333149         3.910409        -2.368404
 H         0.918475         2.612269        -2.940645
 H         1.967434         2.701232        -4.417502
 H         3.186202         0.725370        -3.973730
 H         1.001512        -0.318761        -2.632164
 H         2.478566        -0.485694        -1.735259
 H         0.482735         1.477585        -1.481749
 H         1.945006         3.267095        -0.523833
 H         3.232741         2.042910        -0.167656
 H         2.376113         0.246069         0.579989
