19
Iteration:  1508
 O         4.378669         2.933597        -2.545392
 C         3.072280         2.328505        -2.378538
 C         1.978651         2.757098        -3.391339
 C         2.507200         1.217247        -3.216459
 C         1.763264         0.326863        -2.255894
 C         1.444065         1.157353        -0.985877
 C         2.617716         2.177559        -0.903378
 C         1.354088         0.402046         0.349359
 O         0.359009         0.157792         1.074827
 H         4.508056         3.200977        -3.444033
 H         1.040219         3.120803        -3.045452
 H         2.277473         3.283115        -4.228276
 H         3.046449         0.722985        -4.012211
 H         0.973852        -0.306926        -2.652072
 H         2.568027        -0.526318        -2.013495
 H         0.428817         1.638208        -1.204077
 H         2.193032         3.177288        -0.691381
 H         3.548853         1.812718        -0.334939
 H         2.279666         0.017674         0.880413
