19
Iteration:  1504
 O         4.374487         2.924460        -2.554671
 C         3.059245         2.359163        -2.402378
 C         1.999480         2.730829        -3.368842
 C         2.513192         1.229890        -3.203027
 C         1.797374         0.332193        -2.267898
 C         1.441304         1.116399        -0.992585
 C         2.626466         2.190170        -0.910651
 C         1.337015         0.379392         0.372093
 O         0.346115         0.167160         1.081709
 H         4.447933         3.280463        -3.490092
 H         1.016631         3.136675        -2.993374
 H         2.447289         3.454999        -4.191459
 H         2.941641         0.585367        -4.014657
 H         0.858990        -0.202511        -2.526243
 H         2.508590        -0.436659        -2.113225
 H         0.430619         1.538232        -1.159169
 H         2.220747         3.209262        -0.807842
 H         3.519817         1.904361        -0.355531
 H         2.304571         0.007860         0.838828
