19
Iteration:  3797charge 0 multiplicity 1
 O         4.295574         2.923597        -2.385555
 C         3.007377         2.432634        -2.419900
 C         2.131873         2.467740        -3.651673
 C         2.663324         1.144133        -3.104963
 C         1.848315         0.162621        -2.197103
 C         1.378203         1.111505        -1.053561
 C         2.320592         2.273023        -0.975261
 C         1.393101         0.433354         0.342033
 O         0.459426         0.471041         1.137247
 H         4.328962         3.796106        -2.876922
 H         1.118938         2.823507        -3.483547
 H         2.639962         2.831400        -4.579074
 H         3.218129         0.504856        -3.803457
 H         0.913230        -0.177260        -2.587939
 H         2.467127        -0.717040        -1.976087
 H         0.334903         1.369462        -1.331429
 H         1.879388         3.181176        -0.403691
 H         3.296414         2.008329        -0.413113
 H         2.326643        -0.222341         0.498067
