19
Iteration:  2983charge 0 multiplicity 1
 O         4.306140         2.990917        -2.470023
 C         3.026860         2.363065        -2.343543
 C         1.922954         2.417084        -3.457022
 C         2.652513         1.160179        -3.154584
 C         1.986613         0.179631        -2.123047
 C         1.424216         1.124149        -1.095221
 C         2.515089         2.264744        -0.895143
 C         1.302688         0.390380         0.230052
 O         0.357056         0.512677         1.028149
 H         4.470107         3.382116        -3.319139
 H         1.035928         2.678251        -2.958585
 H         2.059010         3.144911        -4.254141
 H         3.304659         0.714124        -3.924949
 H         1.355380        -0.497492        -2.672423
 H         2.766025        -0.466296        -1.654227
 H         0.445841         1.538254        -1.383182
 H         2.104237         3.180048        -0.465497
 H         3.301063         1.906138        -0.318115
 H         2.088296        -0.412580         0.421193
