19
Iteration:  3199charge 0 multiplicity 1
 O         4.279084         3.040700        -2.352159
 C         2.980828         2.380185        -2.320035
 C         2.010122         2.368683        -3.426515
 C         2.706240         1.067985        -3.139254
 C         1.842108         0.102270        -2.317771
 C         1.303053         1.133300        -1.107239
 C         2.504450         2.209529        -0.922390
 C         1.287128         0.398384         0.169758
 O         0.571458         0.652587         1.073171
 H         3.975836         3.948223        -2.648222
 H         1.041272         2.433134        -2.994156
 H         2.082442         2.756100        -4.448298
 H         3.762311         0.869264        -3.665373
 H         0.954386        -0.378567        -2.795989
 H         2.423355        -0.680407        -1.857902
 H         0.386528         1.578134        -1.346245
 H         2.161138         3.142696        -0.492373
 H         3.402380         1.753299        -0.338989
 H         2.114604        -0.418749         0.153322
