19
Iteration:  2666charge 0 multiplicity 1
 O         4.361538         2.895841        -2.645877
 C         3.072888         2.324000        -2.361939
 C         2.015231         2.467220        -3.490441
 C         2.584913         1.109466        -3.061603
 C         1.825436         0.270938        -2.065496
 C         1.440087         1.298716        -0.885418
 C         2.568293         2.345497        -1.011563
 C         1.315861         0.549803         0.339641
 O         0.336426         0.138219         0.871875
 H         4.420545         3.767296        -2.243222
 H         0.938206         2.563072        -3.272410
 H         2.352113         3.132930        -4.328633
 H         3.165039         0.454663        -3.802956
 H         0.872979        -0.088936        -2.351002
 H         2.479872        -0.458865        -1.494887
 H         0.434422         1.738625        -1.040208
 H         2.149805         3.404869        -0.895805
 H         3.317882         2.167883        -0.216986
 H         2.345794         0.381246         0.794068
