19
Iteration:  4796
 O         4.264280         2.963806        -2.451909
 C         2.991284         2.450101        -2.430443
 C         2.126575         2.391874        -3.657144
 C         2.614273         1.160004        -3.147473
 C         1.943221         0.223543        -2.219190
 C         1.419199         1.073388        -0.995326
 C         2.367815         2.220084        -0.938136
 C         1.292640         0.392004         0.312866
 O         0.439884         0.551709         1.182747
 H         4.479311         3.919809        -2.426184
 H         1.100441         2.481378        -3.687498
 H         2.774694         2.703112        -4.384101
 H         3.302563         0.688891        -3.735280
 H         1.259564        -0.526403        -2.725764
 H         2.585830        -0.626327        -1.812081
 H         0.489173         1.443145        -1.416126
 H         1.876106         3.129996        -0.461459
 H         3.208910         1.953023        -0.354031
 H         2.108390        -0.328557         0.548159
