19
Iteration:  1512
 O         4.376843         2.933051        -2.524325
 C         3.086913         2.317404        -2.370496
 C         1.972580         2.752778        -3.392458
 C         2.490154         1.225096        -3.225766
 C         1.754236         0.292065        -2.237659
 C         1.440034         1.192886        -0.977174
 C         2.613214         2.171834        -0.915148
 C         1.353906         0.409744         0.353641
 O         0.379839         0.157791         1.049197
 H         4.537256         3.143136        -3.490787
 H         0.961347         3.067597        -3.043525
 H         2.220859         3.172681        -4.428913
 H         3.154973         0.886941        -4.046323
 H         0.986670        -0.339388        -2.777617
 H         2.482327        -0.438141        -1.917725
 H         0.547549         1.718594        -1.165328
 H         2.256019         3.110621        -0.442722
 H         3.411566         1.803419        -0.325099
 H         2.316732         0.081699         0.761598
