19
Iteration:  3347charge 0 multiplicity 1
 O         4.360085         2.986564        -2.661768
 C         3.064720         2.346179        -2.454898
 C         2.145710         2.474070        -3.674371
 C         2.642031         1.110132        -3.092507
 C         1.813642         0.362341        -2.071773
 C         1.478126         1.267780        -0.892317
 C         2.528377         2.379755        -0.978133
 C         1.305961         0.370862         0.570170
 O         0.193264         0.091487         1.011203
 H         4.176876         3.953812        -2.830321
 H         1.101480         2.584733        -3.414448
 H         2.436971         2.806846        -4.680748
 H         3.245847         0.643341        -3.854056
 H         0.906873        -0.040790        -2.493573
 H         2.561883        -0.350033        -1.666378
 H         0.484487         1.806603        -1.099569
 H         2.277056         3.495701        -0.593669
 H         3.493552         2.212133        -0.396283
 H         2.229970        -0.098158         0.896988
