19
Iteration:  2715charge 0 multiplicity 1
 O         4.330843         2.841521        -2.629079
 C         3.051762         2.423803        -2.403566
 C         2.080024         2.412567        -3.567566
 C         2.654540         1.087173        -3.026021
 C         1.714033         0.388835        -2.050935
 C         1.412304         1.330733        -0.910823
 C         2.511026         2.429806        -0.923461
 C         1.391713         0.555480         0.438967
 O         0.346008         0.005330         0.838202
 H         4.634360         3.610442        -3.154193
 H         1.027551         2.727048        -3.426371
 H         2.392121         2.633263        -4.544891
 H         3.445668         0.514883        -3.398639
 H         0.717636         0.212075        -2.593860
 H         2.213530        -0.485863        -1.583097
 H         0.504666         1.925838        -0.947313
 H         2.189721         3.352555        -0.544599
 H         3.396519         2.150387        -0.401183
 H         2.377103         0.262774         0.896846
