19
Iteration:  3621
 O         4.363922         2.920948        -2.587223
 C         3.122891         2.401015        -2.354537
 C         1.872514         2.365172        -3.400447
 C         2.667016         1.154914        -2.995150
 C         1.861547         0.186677        -2.135058
 C         1.416282         1.189661        -1.052388
 C         2.507048         2.324966        -0.942108
 C         1.363015         0.517445         0.225685
 O         0.379009         0.378869         0.963032
 H         4.244594         3.786912        -2.082964
 H         0.860593         2.428903        -3.141702
 H         2.071520         2.692149        -4.432431
 H         3.345663         0.735356        -3.748284
 H         1.094262        -0.303750        -2.725528
 H         2.495268        -0.665402        -1.728739
 H         0.483947         1.721105        -1.606005
 H         1.842165         3.120622        -0.515720
 H         3.172061         2.032930        -0.227997
 H         2.300522        -0.013941         0.375709
