19
Iteration:   897
 O         4.304211         2.854339        -2.455577
 C         3.042989         2.341944        -2.469864
 C         2.062562         2.629139        -3.599631
 C         2.487920         1.135607        -3.149193
 C         1.704686         0.373972        -2.092244
 C         1.468120         1.336830        -0.843938
 C         2.571090         2.263384        -0.999246
 C         1.424312         0.454246         0.311831
 O         0.444619         0.057817         0.953116
 H         4.340250         3.554866        -1.735522
 H         1.058306         3.100460        -3.241040
 H         2.403039         2.969546        -4.619912
 H         3.101184         0.749715        -3.885455
 H         0.703808         0.060512        -2.512471
 H         2.233805        -0.576953        -1.739443
 H         0.396603         1.759234        -1.107868
 H         2.270256         3.393100        -0.822365
 H         3.520787         2.111522        -0.348726
 H         2.368429        -0.143737         0.490450
