19
Iteration:  3604charge 0 multiplicity 1
 O         4.398345         2.940113        -2.591808
 C         3.016589         2.383701        -2.354715
 C         1.981042         2.406134        -3.411557
 C         2.676971         1.063380        -3.103584
 C         1.888028         0.212845        -2.097345
 C         1.351541         1.216594        -1.010325
 C         2.438977         2.360071        -0.968353
 C         1.367537         0.458735         0.263832
 O         0.359128         0.341381         0.933648
 H         4.447243         3.915870        -2.333866
 H         1.034608         2.694448        -2.831509
 H         2.231345         2.863386        -4.370507
 H         3.238799         0.674289        -3.941176
 H         0.992157        -0.339490        -2.459085
 H         2.587259        -0.476838        -1.629332
 H         0.353762         1.513674        -0.992028
 H         2.149413         3.408572        -0.781914
 H         3.305185         1.908650        -0.304569
 H         2.408010         0.120614         0.683693
