19
Iteration:  1150
 O         4.348005         2.949601        -2.658162
 C         3.075427         2.390013        -2.407249
 C         1.969899         2.680042        -3.324883
 C         2.569348         1.131909        -3.123448
 C         1.853587         0.289034        -2.145281
 C         1.379219         1.185817        -1.001336
 C         2.632727         2.143861        -0.951177
 C         1.258507         0.425574         0.268727
 O         0.365301         0.183753         1.015641
 H         4.545369         3.843497        -2.244093
 H         0.930038         2.874538        -3.061289
 H         2.321284         3.061239        -4.220640
 H         3.335114         0.894657        -3.936088
 H         1.012720        -0.216341        -2.685777
 H         2.558597        -0.484118        -1.693880
 H         0.546704         1.829782        -1.069008
 H         2.263370         3.103555        -0.600113
 H         3.413054         1.831812        -0.231150
 H         2.307766         0.170702         0.564488
