19
Iteration:   369charge 0 multiplicity 1
 O         4.378153         2.828703        -2.689691
 C         2.944878         2.420388        -2.372287
 C         1.863808         2.633061        -3.395837
 C         2.588928         1.236326        -3.099510
 C         2.043614         0.188983        -2.164432
 C         1.577789         1.138691        -0.885340
 C         2.529152         2.347354        -0.922232
 C         1.371407         0.366828         0.443123
 O         0.223932         0.250765         0.853384
 H         4.459343         3.732523        -3.105540
 H         0.927942         2.886905        -3.081685
 H         2.257146         3.072356        -4.228555
 H         3.335822         0.974393        -3.890454
 H         1.048177        -0.262829        -2.529004
 H         2.621821        -0.653209        -1.809525
 H         0.511376         1.497762        -1.087054
 H         2.089424         3.339872        -0.631149
 H         3.414870         2.037933        -0.388676
 H         2.178399         0.121570         1.216704
