19
Iteration:  2925charge 0 multiplicity 1
 O         4.324345         3.050943        -2.462440
 C         3.079685         2.362920        -2.475980
 C         1.965571         2.393002        -3.494358
 C         2.592404         1.127193        -3.134236
 C         1.861705         0.231938        -2.108977
 C         1.502745         1.163877        -0.914337
 C         2.591675         2.268545        -0.973030
 C         1.329410         0.480275         0.357376
 O         0.253087         0.298050         0.951749
 H         4.576409         3.471222        -3.332508
 H         1.008693         2.867717        -3.141587
 H         2.498499         2.862170        -4.321103
 H         2.935837         0.621830        -4.018703
 H         0.997121        -0.241359        -2.681570
 H         2.697423        -0.460493        -1.814265
 H         0.575361         1.639636        -1.089978
 H         2.194569         3.187404        -0.671006
 H         3.425793         2.092050        -0.278054
 H         2.282815         0.049916         0.780422
