19
Iteration:  2572charge 0 multiplicity 1
 O         4.321902         2.951656        -2.570396
 C         3.081271         2.390719        -2.394748
 C         1.958157         2.387162        -3.412870
 C         2.692293         1.082292        -3.081150
 C         1.836118         0.160138        -2.202731
 C         1.457106         1.300549        -0.953485
 C         2.517680         2.350735        -0.895054
 C         1.283252         0.369676         0.229484
 O         0.379821         0.429748         0.993456
 H         4.296478         3.914652        -2.345631
 H         0.960798         2.436553        -3.093915
 H         2.055185         2.766019        -4.451321
 H         3.241587         0.565032        -3.917301
 H         0.963668        -0.350672        -2.794553
 H         2.531200        -0.615540        -1.890597
 H         0.470237         1.789114        -1.111400
 H         2.292297         3.326109        -0.442608
 H         3.393137         1.851596        -0.253220
 H         2.174674        -0.268368         0.390709
