19
Iteration:  1587charge 0 multiplicity 1
 O         4.425996         2.934430        -2.667521
 C         3.140152         2.393218        -2.383720
 C         2.122423         2.687899        -3.502849
 C         2.538387         1.241241        -3.053318
 C         1.525232         0.377836        -2.120335
 C         1.417102         1.261929        -0.872661
 C         2.602635         2.262390        -0.949115
 C         1.371651         0.344169         0.364649
 O         0.371682        -0.042972         0.984392
 H         4.518551         3.334466        -3.520108
 H         1.121759         2.933569        -3.242050
 H         2.323345         2.985742        -4.544448
 H         3.179201         0.789184        -3.848961
 H         0.500817         0.233343        -2.508336
 H         2.081604        -0.631440        -1.909547
 H         0.445306         1.766919        -0.896865
 H         2.238719         3.241354        -0.715517
 H         3.365135         2.244808        -0.143081
 H         2.372147         0.008957         0.802414
