19
Iteration:  4909charge 0 multiplicity 1
 O         4.292213         2.978327        -2.484716
 C         3.001157         2.423336        -2.439473
 C         2.210685         2.401941        -3.754708
 C         2.718710         1.038324        -3.133558
 C         1.807566         0.316768        -2.151016
 C         1.335930         1.171678        -0.978564
 C         2.309071         2.301433        -0.970779
 C         1.316632         0.418863         0.365616
 O         0.446440         0.362073         1.231777
 H         4.413190         3.965250        -2.444088
 H         1.111580         2.611414        -3.832570
 H         2.832292         2.744172        -4.645599
 H         3.644390         0.713582        -3.703155
 H         1.055980        -0.249181        -2.674499
 H         2.509538        -0.567753        -1.810592
 H         0.394687         1.571357        -1.239070
 H         1.880188         3.182978        -0.549345
 H         3.132717         1.928400        -0.371589
 H         2.321420        -0.205110         0.411291
