19
Iteration:  4647
 O         4.353277         2.917547        -2.694288
 C         3.036022         2.413742        -2.301035
 C         1.970763         2.354128        -3.375169
 C         2.663641         1.063449        -3.060014
 C         1.901073         0.209606        -2.107504
 C         1.411558         1.213220        -1.007179
 C         2.518054         2.347616        -0.927217
 C         1.349264         0.557432         0.325853
 O         0.313441         0.320104         0.882169
 H         4.287936         3.846111        -2.933105
 H         0.920356         2.520387        -3.079124
 H         2.351301         2.837078        -4.279129
 H         3.428812         0.733563        -3.623536
 H         1.025132        -0.290792        -2.470559
 H         2.608404        -0.414156        -1.658091
 H         0.411671         1.608794        -1.255012
 H         1.939583         3.165106        -0.490347
 H         3.276654         1.980033        -0.167933
 H         2.393125         0.305061         0.702267
