19
Iteration:  2621charge 0 multiplicity 1
 O         4.355336         2.848352        -2.579959
 C         2.971705         2.401391        -2.447601
 C         2.014152         2.554879        -3.549966
 C         2.637379         1.177493        -3.201946
 C         1.894283         0.228456        -2.145612
 C         1.439984         1.089280        -0.949505
 C         2.622381         2.314935        -0.926488
 C         1.324695         0.526623         0.510715
 O         0.232590         0.239124         1.023752
 H         4.200331         3.706542        -2.974227
 H         0.923171         2.929790        -3.473971
 H         2.432926         3.064231        -4.399429
 H         3.510414         0.854268        -3.802840
 H         1.105694        -0.201848        -2.613999
 H         2.699351        -0.505921        -1.904001
 H         0.507098         1.490463        -1.362360
 H         2.120430         3.200166        -0.442053
 H         3.466169         2.022021        -0.305019
 H         2.282182         0.520084         1.037170
