19
Iteration:  1000
 O         4.337535         2.918943        -2.441492
 C         3.134213         2.335182        -2.480947
 C         1.990836         2.659135        -3.430332
 C         2.512988         1.139666        -3.180429
 C         1.681310         0.274424        -2.128653
 C         1.435944         1.273030        -0.858993
 C         2.638765         2.355426        -1.034409
 C         1.416208         0.369787         0.455805
 O         0.357117         0.092973         0.870332
 H         4.552531         3.552548        -3.159248
 H         1.010255         3.091919        -3.215837
 H         2.382872         3.053179        -4.293506
 H         2.806799         0.778035        -4.248021
 H         0.865176        -0.197705        -2.586140
 H         2.342721        -0.555464        -1.714203
 H         0.502955         1.775280        -0.931970
 H         2.251785         3.331801        -0.859991
 H         3.538307         2.131050        -0.405719
 H         2.424165        -0.035033         0.786324
