19
Iteration:  4103
 O         4.363898         2.957166        -2.613087
 C         3.079609         2.399676        -2.448368
 C         2.148120         2.496709        -3.580437
 C         2.660534         1.091159        -3.122348
 C         1.819225         0.216541        -1.966791
 C         1.381759         1.227574        -0.935198
 C         2.457246         2.390255        -1.038338
 C         1.293814         0.516958         0.425824
 O         0.303741         0.090645         1.035074
 H         4.358688         3.813325        -3.043446
 H         1.184162         2.983253        -3.512369
 H         2.588917         2.959738        -4.545831
 H         3.415416         0.655495        -3.653708
 H         0.904698        -0.136033        -2.481844
 H         2.334221        -0.712409        -1.748089
 H         0.465537         1.707701        -1.168057
 H         1.980925         3.335741        -0.769105
 H         3.206467         2.231338        -0.336976
 H         2.309281         0.325351         0.831629
