19
Iteration:  1496
 O         4.351336         2.895915        -2.581630
 C         3.088242         2.419491        -2.412223
 C         2.049611         2.693922        -3.342177
 C         2.490576         1.276925        -3.220270
 C         1.813136         0.311025        -2.257526
 C         1.476005         1.041928        -0.953668
 C         2.604154         2.246988        -1.003329
 C         1.320128         0.305150         0.427905
 O         0.314514         0.206829         1.071079
 H         4.307541         3.435892        -3.413235
 H         1.088545         2.960032        -2.981266
 H         2.528842         3.328654        -4.020810
 H         2.878240         0.754097        -4.091449
 H         0.818265         0.090881        -2.591908
 H         2.559110        -0.621415        -2.104466
 H         0.427226         1.547097        -1.049428
 H         2.293857         3.235792        -0.518363
 H         3.447526         2.086397        -0.195227
 H         2.409180        -0.008252         0.607059
