19
Iteration:  4025charge 0 multiplicity 1
 O         4.343995         3.022985        -2.669599
 C         3.141621         2.263395        -2.363828
 C         1.971834         2.424068        -3.407989
 C         2.647795         1.021130        -3.153841
 C         1.854447         0.251319        -1.963069
 C         1.444673         1.267226        -0.990319
 C         2.514656         2.344411        -0.904157
 C         1.309926         0.661827         0.332930
 O         0.312342         0.177438         0.842341
 H         4.356183         3.786904        -2.033524
 H         0.884398         2.207836        -3.035655
 H         2.107193         3.000915        -4.325542
 H         3.103169         0.337007        -3.958745
 H         1.052705        -0.296156        -2.539729
 H         2.597542        -0.526323        -1.651484
 H         0.521296         1.732698        -1.292143
 H         2.235830         3.371456        -0.785916
 H         3.227667         2.036423        -0.219488
 H         2.309749         0.347374         0.804280
