19
Iteration:  2026charge 0 multiplicity 1
 O         4.363045         3.085567        -2.351680
 C         3.058284         2.344255        -2.473567
 C         2.181502         2.536655        -3.656837
 C         2.503138         1.140990        -3.138008
 C         1.628941         0.289339        -2.133634
 C         1.337204         1.222826        -0.903259
 C         2.446409         2.299997        -0.939707
 C         1.462168         0.338570         0.287441
 O         0.477055         0.255093         1.046962
 H         4.822550         2.414972        -2.939852
 H         1.057367         2.730487        -3.693717
 H         2.773585         2.706082        -4.628659
 H         3.042018         0.620048        -3.988161
 H         0.717884        -0.155166        -2.497109
 H         2.235860        -0.588583        -1.994953
 H         0.273636         1.577510        -0.861827
 H         2.036650         3.280244        -0.792558
 H         3.279206         2.090523        -0.252577
 H         2.425286        -0.180198         0.361976
