19
Iteration:  3723
 O         4.233756         2.957968        -2.427945
 C         3.004681         2.374637        -2.287875
 C         2.036072         2.355168        -3.396070
 C         2.719954         1.107913        -3.080302
 C         1.850258         0.164077        -2.244693
 C         1.405307         1.180671        -1.108143
 C         2.399615         2.294732        -0.865892
 C         1.362817         0.443160         0.171751
 O         0.522847         0.557648         0.991676
 H         4.237780         3.326275        -3.291876
 H         0.950940         2.340227        -3.179560
 H         2.333639         2.879328        -4.363868
 H         3.329078         0.672092        -3.943138
 H         0.991657        -0.288599        -2.782326
 H         2.376975        -0.571067        -1.572858
 H         0.263958         1.491393        -1.296360
 H         2.131548         3.284217        -0.497035
 H         3.185042         1.848468        -0.282645
 H         2.269612        -0.257421         0.266500
