19
Iteration:   701charge 0 multiplicity 1
 O         4.304898         2.820245        -2.479667
 C         2.883244         2.464006        -2.369909
 C         1.907833         2.617045        -3.417128
 C         2.559350         1.307368        -3.270362
 C         1.962710         0.240912        -2.223821
 C         1.452898         1.073881        -1.013720
 C         2.701956         2.148926        -0.874667
 C         1.319858         0.323152         0.255468
 O         0.355326         0.424744         1.069893
 H         4.450618         3.415526        -3.285507
 H         0.721512         2.726458        -2.972021
 H         2.096329         3.378047        -4.300088
 H         3.490746         1.022422        -3.823671
 H         1.270073        -0.432717        -2.680466
 H         2.804723        -0.334635        -1.836307
 H         0.545863         1.767306        -1.109876
 H         2.370160         3.068242        -0.310742
 H         3.550483         1.628122        -0.454243
 H         2.190606        -0.255881         0.635519
