19
Iteration:  3489charge 0 multiplicity 1
 O         4.391061         2.855888        -2.601889
 C         3.023680         2.480759        -2.381999
 C         2.065253         2.355923        -3.557984
 C         2.634751         1.082966        -2.955146
 C         1.781091         0.312341        -2.061668
 C         1.327740         1.342800        -0.925899
 C         2.488068         2.451944        -1.002187
 C         1.401560         0.515553         0.362847
 O         0.389390         0.080105         0.865159
 H         4.420453         3.861728        -2.524354
 H         1.029428         2.659609        -3.261473
 H         2.367617         2.749106        -4.490559
 H         3.281960         0.436041        -3.662241
 H         0.905411        -0.027985        -2.623166
 H         2.389110        -0.547102        -1.585573
 H         0.190751         1.725804        -1.158878
 H         2.223882         3.525088        -0.714178
 H         3.179117         2.064789        -0.245563
 H         2.377928         0.067449         0.646142
