19
Iteration:  1472charge 0 multiplicity 1
 O         4.439718         2.885226        -2.607179
 C         3.022060         2.433692        -2.420074
 C         1.897698         2.697217        -3.423667
 C         2.523290         1.227418        -3.097547
 C         1.757555         0.277563        -2.269973
 C         1.517665         1.111985        -0.945033
 C         2.594503         2.192515        -0.837115
 C         1.413693         0.263510         0.326156
 O         0.331510         0.304906         0.979794
 H         4.308115         3.817960        -2.746751
 H         0.933874         2.962439        -2.948739
 H         2.227647         3.136132        -4.441304
 H         3.146065         0.682089        -3.853181
 H         0.773485        -0.094579        -2.509603
 H         2.522115        -0.504571        -2.037787
 H         0.492739         1.616986        -0.966237
 H         2.276897         3.214275        -0.456125
 H         3.467457         2.078004        -0.137168
 H         2.312186        -0.396019         0.471794
