19
Iteration:    32
 O         4.299812         2.745520        -2.360139
 C         2.960602         2.475931        -2.425861
 C         1.967044         2.457950        -3.519545
 C         2.587847         1.149898        -3.136895
 C         2.027586         0.303500        -2.078429
 C         1.390622         1.196067        -1.097536
 C         2.318125         2.339808        -0.953147
 C         1.374867         0.432261         0.184625
 O         0.512674         0.367858         1.061741
 H         4.534002         3.180448        -3.229223
 H         1.057618         2.838242        -3.116783
 H         2.208902         2.639483        -4.538400
 H         3.337313         0.807957        -3.807460
 H         1.326921        -0.479062        -2.382471
 H         2.815155        -0.226032        -1.583595
 H         0.325166         1.507104        -1.431014
 H         1.745185         3.196378        -0.557136
 H         3.155363         2.262396        -0.295800
 H         2.488926         0.198690         0.378930
