19
Iteration:  3892
 O         4.249879         2.897463        -2.491745
 C         2.897610         2.437231        -2.382957
 C         2.135398         2.458283        -3.657819
 C         2.639822         1.135166        -3.098418
 C         1.854575         0.204259        -2.183003
 C         1.473327         1.166891        -0.970538
 C         2.567560         2.362874        -0.967717
 C         1.351908         0.486509         0.426603
 O         0.303304         0.287363         1.057146
 H         4.290664         3.799336        -2.836559
 H         1.099195         2.689144        -3.713137
 H         2.765905         2.839549        -4.488951
 H         3.366513         0.523994        -3.678021
 H         1.030987        -0.361405        -2.727115
 H         2.616926        -0.573346        -1.938372
 H         0.479141         1.535199        -1.120808
 H         2.222008         3.320787        -0.704658
 H         3.377207         2.125840        -0.362408
 H         2.364570         0.134068         0.869948
