19
Iteration:  1655charge 0 multiplicity 1
 O         4.410717         2.776292        -2.551348
 C         3.128911         2.392578        -2.415642
 C         1.965658         2.632804        -3.329250
 C         2.439038         1.215359        -3.115058
 C         1.670109         0.312856        -2.082644
 C         1.367340         1.310152        -0.962142
 C         2.570169         2.413192        -1.012102
 C         1.463582         0.473599         0.267340
 O         0.489634         0.024575         0.808232
 H         4.598444         2.831481        -1.581074
 H         0.901840         2.954667        -2.976443
 H         2.103264         2.953359        -4.430376
 H         2.858706         0.597383        -3.906851
 H         0.655245        -0.200921        -2.318379
 H         2.252072        -0.598090        -1.730973
 H         0.501800         1.898987        -0.997283
 H         2.157655         3.297315        -0.552977
 H         3.398958         2.060414        -0.327835
 H         2.432659         0.383274         0.822597
