19
Iteration:  3016
 O         4.213597         3.128772        -2.295966
 C         3.117603         2.302142        -2.384085
 C         1.982849         2.398272        -3.543185
 C         2.650196         1.084071        -3.140615
 C         1.836075         0.134375        -2.276600
 C         1.402962         1.035498        -1.097710
 C         2.526615         2.154099        -0.922901
 C         1.384642         0.467773         0.284790
 O         0.432778         0.600259         1.050134
 H         4.177425         3.769127        -2.996308
 H         1.148009         2.781441        -3.038020
 H         2.242114         2.976522        -4.444228
 H         3.234160         0.689451        -4.034935
 H         0.972037        -0.246040        -2.824559
 H         2.402739        -0.720320        -1.821777
 H         0.440986         1.520613        -1.383473
 H         2.184059         3.068962        -0.412496
 H         3.322805         1.836958        -0.341943
 H         2.239006        -0.238764         0.538100
