19
Iteration:  2120charge 0 multiplicity 1
 O         4.349177         2.884267        -2.577499
 C         2.995543         2.416622        -2.435252
 C         1.997657         2.514326        -3.615105
 C         2.523940         1.203528        -3.199313
 C         1.916857         0.345895        -2.096909
 C         1.532291         1.203143        -0.839972
 C         2.587678         2.382002        -0.976852
 C         1.330309         0.391713         0.377663
 O         0.239737         0.170811         0.980358
 H         4.704693         3.305244        -1.785373
 H         1.027760         2.785805        -3.218672
 H         2.399110         2.932856        -4.583945
 H         3.194045         0.570665        -3.738244
 H         1.043585        -0.402065        -2.076988
 H         2.625061        -0.532427        -1.903772
 H         0.499249         1.627138        -1.045567
 H         2.272768         3.388457        -0.602180
 H         3.449102         1.978385        -0.473824
 H         2.258663        -0.016257         0.735303
