19
Iteration:  3850charge 0 multiplicity 1
 O         4.307112         2.967803        -2.551519
 C         3.080686         2.370655        -2.382512
 C         2.079620         2.388753        -3.508185
 C         2.713059         1.094606        -3.070933
 C         1.823023         0.201524        -2.184082
 C         1.328148         1.236611        -1.027277
 C         2.440929         2.396529        -1.062324
 C         1.311108         0.405554         0.279861
 O         0.415125         0.331720         1.141161
 H         4.328393         3.759444        -1.936891
 H         1.009539         2.524918        -3.430402
 H         2.568256         2.782000        -4.445532
 H         3.458887         0.616665        -3.742247
 H         0.960250        -0.311628        -2.674278
 H         2.406359        -0.640880        -1.753076
 H         0.384285         1.638308        -1.171796
 H         1.947537         3.357475        -0.705322
 H         3.279157         2.381512        -0.277940
 H         2.298464        -0.024688         0.501649
