19
Iteration:  2472charge 0 multiplicity 1
 O         4.397032         2.889929        -2.401375
 C         2.966967         2.400918        -2.298252
 C         1.949653         2.411074        -3.498223
 C         2.650691         1.148902        -3.049245
 C         1.850825         0.227765        -2.212467
 C         1.370048         1.134553        -1.120291
 C         2.370677         2.313111        -0.903200
 C         1.363886         0.410424         0.196823
 O         0.536460         0.500682         1.022411
 H         4.545592         3.211252        -3.290902
 H         0.880050         2.318297        -3.282251
 H         2.312252         2.860565        -4.356836
 H         3.211666         0.592998        -3.812758
 H         0.916606        -0.233672        -2.702388
 H         2.399124        -0.560125        -1.855685
 H         0.403639         1.640304        -1.208044
 H         1.843780         3.250985        -0.657453
 H         3.363646         2.150447        -0.310065
 H         2.436077        -0.027956         0.500972
