19
Iteration:   967charge 0 multiplicity 1
 O         4.372971         2.784051        -2.549770
 C         3.024420         2.444387        -2.357286
 C         2.025591         2.571902        -3.514165
 C         2.529476         1.186122        -3.154293
 C         1.718243         0.294228        -2.148443
 C         1.341202         1.386860        -0.871581
 C         2.569956         2.376279        -0.863663
 C         1.412552         0.430629         0.287832
 O         0.429579         0.033264         0.911679
 H         4.513933         3.618827        -3.085711
 H         1.014250         2.851450        -3.275922
 H         2.396559         3.046668        -4.356142
 H         3.387282         0.808221        -3.827548
 H         0.881328        -0.272279        -2.488106
 H         2.424596        -0.479295        -1.773901
 H         0.446479         1.923746        -0.951438
 H         2.349939         3.295444        -0.385099
 H         3.392033         1.867036        -0.326360
 H         2.408473        -0.026490         0.471082
