19
Iteration:  4645
 O         4.369771         2.926713        -2.693209
 C         3.014078         2.422815        -2.285119
 C         1.972995         2.340845        -3.387547
 C         2.641257         1.047816        -3.043910
 C         1.896428         0.224421        -2.132764
 C         1.440940         1.223646        -1.007123
 C         2.522785         2.335653        -0.930901
 C         1.334775         0.549141         0.312000
 O         0.304687         0.307406         0.902912
 H         4.327833         3.871079        -2.981714
 H         0.978082         2.533477        -3.165214
 H         2.339439         2.856895        -4.293879
 H         3.450010         0.743229        -3.714623
 H         1.005780        -0.281345        -2.430588
 H         2.596976        -0.408657        -1.564095
 H         0.439474         1.566246        -1.302739
 H         1.960730         3.265325        -0.472166
 H         3.282187         2.003081        -0.154747
 H         2.462718         0.374907         0.754079
