19
Iteration:  3081charge 0 multiplicity 1
 O         4.278429         2.972384        -2.448479
 C         3.031619         2.372571        -2.346460
 C         2.051613         2.390797        -3.581762
 C         2.773651         1.103536        -3.086552
 C         1.846416         0.226957        -2.206070
 C         1.320109         1.137411        -1.170679
 C         2.363666         2.371624        -0.964525
 C         1.288204         0.285588         0.212870
 O         0.584382         0.540467         1.204211
 H         4.209102         3.850324        -2.011147
 H         1.070701         2.685066        -3.328883
 H         2.504755         2.813639        -4.476730
 H         3.429685         0.646989        -3.950667
 H         1.072677        -0.398324        -2.660851
 H         2.591704        -0.511269        -1.716167
 H         0.258991         1.439517        -1.227298
 H         1.695248         3.231761        -0.733112
 H         3.030695         2.119756        -0.098987
 H         1.753242        -0.728836         0.168569
