19
Iteration:  4254
 O         4.229415         2.944413        -2.406426
 C         3.011332         2.345628        -2.389128
 C         2.012819         2.434443        -3.463108
 C         2.707905         1.056936        -3.050194
 C         1.851775         0.213830        -2.188098
 C         1.422831         1.156158        -1.057421
 C         2.478377         2.285831        -1.016532
 C         1.382372         0.489367         0.229706
 O         0.426944         0.465586         1.015758
 H         4.250518         3.815701        -2.861667
 H         0.957103         2.365154        -3.178038
 H         2.242542         2.887273        -4.463696
 H         3.426636         0.675707        -3.761572
 H         1.002559        -0.230761        -2.708670
 H         2.458898        -0.566039        -1.661525
 H         0.490559         1.654053        -1.127906
 H         2.084867         3.196265        -0.574971
 H         3.330045         1.948226        -0.325617
 H         2.360674        -0.081002         0.468915
