19
Iteration:   986charge 0 multiplicity 1
 O         4.478370         2.909323        -2.408625
 C         3.057461         2.403765        -2.475558
 C         1.984737         2.592953        -3.510780
 C         2.380612         1.183063        -3.098578
 C         1.730526         0.351355        -2.055383
 C         1.463961         1.269666        -0.923607
 C         2.606233         2.330861        -1.042731
 C         1.400128         0.392150         0.307631
 O         0.371872         0.043647         0.915190
 H         4.471746         3.659818        -3.051282
 H         1.078099         3.042432        -3.183369
 H         2.231270         2.687745        -4.583504
 H         2.749846         0.539971        -3.914676
 H         0.791242        -0.039585        -2.308402
 H         2.470761        -0.458678        -1.744853
 H         0.458584         1.704466        -1.050513
 H         2.316285         3.329947        -0.619621
 H         3.483770         2.088127        -0.359715
 H         2.379805        -0.089070         0.634595
