19
Iteration:  4287
 O         4.315284         3.045249        -2.621884
 C         3.089305         2.397327        -2.419738
 C         2.144551         2.470971        -3.586388
 C         2.625954         1.136980        -3.088984
 C         1.921962         0.242403        -2.254717
 C         1.380868         1.024327        -1.026808
 C         2.505558         2.289855        -0.906429
 C         1.219004         0.333469         0.387444
 O         0.314132         0.479017         1.198019
 H         3.982065         3.909550        -2.437437
 H         0.987178         2.623539        -3.438328
 H         2.580146         2.658335        -4.575165
 H         3.262339         0.536589        -3.877256
 H         1.275185        -0.513502        -2.696267
 H         2.755762        -0.460310        -2.010322
 H         0.406339         1.460542        -1.010606
 H         2.007946         3.153967        -0.507801
 H         3.386407         1.884253        -0.265190
 H         2.152879        -0.367147         0.683997
