19
Iteration:  3576
 O         4.332104         2.895042        -2.569154
 C         2.937907         2.410165        -2.378672
 C         2.126183         2.544295        -3.637706
 C         2.585396         1.100575        -3.128749
 C         1.917179         0.252823        -2.169298
 C         1.491740         1.195146        -0.941889
 C         2.524213         2.381361        -0.923625
 C         1.304304         0.483772         0.445304
 O         0.273669         0.188395         1.046334
 H         4.271372         3.854378        -2.804274
 H         1.062702         2.782833        -3.619097
 H         2.560480         2.562927        -4.650413
 H         3.357117         0.600763        -3.859769
 H         1.023716        -0.325377        -2.445235
 H         2.673414        -0.531712        -1.853942
 H         0.376932         1.629856        -1.050344
 H         2.233836         3.412816        -0.700585
 H         3.346953         2.068786        -0.370166
 H         2.268352         0.194012         0.871861
