19
Iteration:  2105
 O         4.376366         2.893367        -2.570913
 C         3.046539         2.390831        -2.488153
 C         2.028457         2.624424        -3.572380
 C         2.535840         1.121042        -3.103124
 C         1.828126         0.205749        -2.041250
 C         1.469674         1.264244        -0.934258
 C         2.562563         2.352817        -0.970204
 C         1.351640         0.396475         0.396334
 O         0.308194         0.170139         0.969359
 H         4.248789         3.714159        -1.996069
 H         1.023811         3.041894        -3.527941
 H         2.505872         2.854969        -4.500563
 H         3.077607         0.670185        -3.959073
 H         0.921655        -0.176211        -2.585024
 H         2.579205        -0.458802        -1.642141
 H         0.520558         1.730393        -1.040137
 H         2.068666         3.249938        -0.569996
 H         3.431058         2.231323        -0.331182
 H         2.310651        -0.142611         0.662566
