19
Iteration:  3392
 O         4.330916         2.819384        -2.608271
 C         3.063337         2.360312        -2.412578
 C         1.980399         2.409959        -3.506881
 C         2.698370         1.067116        -3.034769
 C         1.808337         0.336880        -2.010498
 C         1.325714         1.306053        -0.909854
 C         2.502262         2.443603        -0.911965
 C         1.394158         0.541384         0.298628
 O         0.391247         0.134816         0.791569
 H         4.456386         3.811650        -2.682312
 H         0.949511         2.504989        -3.149323
 H         2.141453         3.010620        -4.344290
 H         3.541747         0.614606        -3.639471
 H         0.913540        -0.146464        -2.399663
 H         2.566787        -0.375151        -1.661090
 H         0.348127         1.819928        -1.002915
 H         2.060378         3.445174        -0.461107
 H         3.327034         2.116442        -0.195871
 H         2.384957         0.341012         0.779073
