19
Iteration:  1710
 O         4.368330         2.945971        -2.651142
 C         3.055819         2.456030        -2.345006
 C         2.010391         2.574605        -3.589182
 C         2.581713         1.283405        -3.076723
 C         1.647092         0.362095        -2.177338
 C         1.443859         1.274381        -0.906039
 C         2.595470         2.219884        -0.881433
 C         1.364633         0.409769         0.416696
 O         0.368637         0.017798         0.949928
 H         4.727680         2.201453        -3.139139
 H         0.915887         3.073972        -3.516790
 H         2.655031         3.026809        -4.344999
 H         3.344315         0.686823        -3.494993
 H         0.566766         0.261772        -2.486583
 H         2.295569        -0.509474        -1.962869
 H         0.611933         1.919054        -1.005628
 H         2.321864         3.113689        -0.317017
 H         3.438471         1.798599        -0.211330
 H         2.454411         0.049516         0.736552
