19
Iteration:   197
 O         4.304372         2.801383        -2.188905
 C         2.896318         2.457691        -2.326028
 C         2.145876         2.523510        -3.591118
 C         2.547965         1.177495        -3.223931
 C         1.804037         0.171834        -2.356427
 C         1.359266         1.037375        -1.125269
 C         2.188445         2.353254        -1.046011
 C         1.513360         0.385346         0.298384
 O         0.662538         0.515220         1.156800
 H         4.428847         3.401641        -2.952318
 H         1.176695         2.810425        -3.328026
 H         2.707700         3.030830        -4.306363
 H         3.527343         0.793192        -3.665713
 H         0.867732        -0.153536        -2.786439
 H         2.448219        -0.703842        -2.179709
 H         0.235784         1.118301        -1.204120
 H         1.646164         3.181891        -0.599463
 H         3.006896         2.149769        -0.314262
 H         2.540679         0.037103         0.640985
