19
Iteration:  1800charge 0 multiplicity 1
 O         4.303511         2.790996        -2.571552
 C         3.021535         2.426942        -2.340483
 C         1.898091         2.752721        -3.491182
 C         2.619508         1.256095        -3.193912
 C         1.932492         0.268031        -2.298502
 C         1.490492         1.153137        -0.952999
 C         2.611176         2.160111        -0.877333
 C         1.292591         0.341550         0.387908
 O         0.319397         0.294763         1.056530
 H         4.326314         3.679522        -2.944677
 H         0.905128         3.108647        -3.383980
 H         2.343700         3.203185        -4.437987
 H         3.234766         0.849248        -4.003269
 H         0.927880        -0.026000        -2.693231
 H         2.582268        -0.563420        -2.074723
 H         0.511351         1.550837        -1.120832
 H         2.552571         3.045202        -0.189420
 H         3.454790         1.634272        -0.381114
 H         2.314787        -0.155307         1.003255
