19
Iteration:  4259charge 0 multiplicity 1
 O         4.242885         2.956636        -2.425543
 C         3.008323         2.395917        -2.406282
 C         2.028305         2.455609        -3.464981
 C         2.739585         1.063725        -3.086688
 C         1.845778         0.214323        -2.132268
 C         1.419983         1.156344        -1.090952
 C         2.502908         2.236667        -1.030900
 C         1.364874         0.468229         0.278755
 O         0.411128         0.463111         1.042396
 H         4.158696         3.816071        -2.827768
 H         0.949445         2.346351        -3.139252
 H         2.317277         2.906035        -4.382668
 H         3.489377         0.664246        -3.832443
 H         0.947719        -0.326632        -2.553479
 H         2.389887        -0.706969        -1.837175
 H         0.404278         1.688228        -1.121077
 H         1.950758         3.174497        -0.710780
 H         3.274212         1.983435        -0.336821
 H         2.255395        -0.138140         0.409929
