19
Iteration:  3238
 O         4.285414         2.964397        -2.640694
 C         3.047819         2.420294        -2.368200
 C         2.097732         2.558078        -3.563469
 C         2.677384         1.152594        -3.165502
 C         1.938252         0.212663        -2.182169
 C         1.428423         1.053663        -0.999778
 C         2.438930         2.292759        -0.923008
 C         1.171937         0.209378         0.338668
 O         0.399509         0.523535         1.164454
 H         4.478415         3.860467        -2.439073
 H         1.029961         2.656101        -3.416163
 H         2.486127         2.980387        -4.542828
 H         3.563027         0.879306        -3.634218
 H         1.272401        -0.531271        -2.643618
 H         2.698661        -0.490256        -1.703761
 H         0.349167         1.470785        -1.043503
 H         2.049373         3.328966        -0.471529
 H         3.264912         1.958111        -0.238684
 H         1.756550        -0.698874         0.447113
