19
Iteration:  3188
 O         4.272638         3.082613        -2.271439
 C         3.026962         2.359672        -2.362470
 C         2.001620         2.370578        -3.480445
 C         2.723744         1.044399        -3.110669
 C         1.813415         0.163466        -2.326210
 C         1.331122         1.069604        -1.104132
 C         2.435070         2.123405        -1.021444
 C         1.359448         0.398087         0.207958
 O         0.563154         0.709375         1.095553
 H         4.084779         4.015829        -2.608150
 H         0.995835         2.441465        -3.135459
 H         2.177630         3.145950        -4.225415
 H         3.335810         0.511351        -3.967256
 H         1.030390        -0.244348        -3.007436
 H         2.371861        -0.690547        -1.965316
 H         0.396439         1.542946        -1.211654
 H         1.949722         2.871535        -0.423858
 H         3.291540         1.716885        -0.337633
 H         2.219801        -0.312165         0.407700
