19
Iteration:  1191charge 0 multiplicity 1
 O         4.294562         2.819141        -2.506546
 C         2.959203         2.473774        -2.337840
 C         1.964383         2.554112        -3.501450
 C         2.517788         1.232140        -3.217875
 C         1.783801         0.261942        -2.206929
 C         1.588742         1.189574        -0.932417
 C         2.645892         2.309982        -0.919194
 C         1.373221         0.343436         0.337624
 O         0.386270         0.254250         0.949110
 H         4.444179         3.364078        -1.746657
 H         0.851507         2.876466        -3.410555
 H         2.424939         2.987933        -4.375900
 H         3.397089         0.842272        -3.831878
 H         0.694833        -0.033363        -2.559110
 H         2.408200        -0.560960        -1.997782
 H         0.541461         1.662602        -1.141140
 H         2.014277         3.224861        -0.629275
 H         3.472930         2.343548        -0.260957
 H         2.376200        -0.260841         0.538486
