19
Iteration:  4743charge 0 multiplicity 1
 O         4.298058         3.039714        -2.570717
 C         3.078155         2.348028        -2.354636
 C         1.959129         2.373465        -3.485572
 C         2.707901         1.051234        -3.098012
 C         1.895863         0.159877        -2.189932
 C         1.436507         1.099803        -1.076789
 C         2.470390         2.250176        -0.785660
 C         1.302322         0.449733         0.241202
 O         0.381028         0.542920         1.035855
 H         4.001258         3.963687        -2.706278
 H         0.927330         2.516363        -3.244756
 H         2.410184         2.752666        -4.320635
 H         3.410145         0.783786        -3.759688
 H         1.095376        -0.140088        -2.854935
 H         2.447952        -0.696105        -1.559857
 H         0.514468         1.535332        -1.433624
 H         1.984704         3.233557        -0.547433
 H         3.353336         1.936104        -0.246448
 H         2.303184         0.016518         0.558788
