19
Iteration:    73
 O         4.314936         3.016623        -2.321958
 C         3.021641         2.409050        -2.427337
 C         2.213322         2.553557        -3.649027
 C         2.582399         1.143078        -3.200038
 C         1.773753         0.261106        -2.241246
 C         1.352309         0.971123        -0.987098
 C         2.215353         2.282672        -1.086376
 C         1.512609         0.416415         0.438639
 O         0.512222         0.393420         1.144090
 H         4.971598         2.639427        -2.933406
 H         1.148359         2.792760        -3.349281
 H         2.567470         2.872421        -4.614527
 H         3.087618         0.547084        -3.919094
 H         0.934164        -0.241725        -2.803644
 H         2.413448        -0.653309        -2.035426
 H         0.248356         1.335243        -1.044255
 H         1.545154         3.175753        -0.915492
 H         2.860220         2.393995        -0.182973
 H         2.452697         0.149145         0.819711
