19
Iteration:  3040
 O         4.169189         3.040033        -2.392596
 C         2.952389         2.393285        -2.332212
 C         2.176155         2.505613        -3.583335
 C         2.715999         1.113213        -3.206950
 C         1.828118         0.203302        -2.329863
 C         1.414857         0.980385        -1.074345
 C         2.458399         2.110093        -0.944358
 C         1.376513         0.361859         0.412246
 O         0.427188         0.620329         1.177124
 H         4.050887         3.823963        -3.002343
 H         1.056297         2.540063        -3.846392
 H         2.711071         2.900096        -4.493403
 H         3.675297         0.785423        -3.771756
 H         1.037523        -0.028399        -3.042347
 H         2.235633        -0.705095        -1.868367
 H         0.457749         1.570599        -1.398705
 H         2.118578         3.034254        -0.337041
 H         3.356782         1.886711        -0.492886
 H         2.201103        -0.370229         0.755610
