19
Iteration:  2659charge 0 multiplicity 1
 O         4.364857         2.880164        -2.638174
 C         3.089270         2.382287        -2.416934
 C         1.975040         2.486234        -3.537812
 C         2.593399         1.123831        -3.090255
 C         1.844084         0.259905        -2.053046
 C         1.410736         1.231742        -0.893352
 C         2.564793         2.356210        -0.954053
 C         1.355923         0.552729         0.395845
 O         0.292841         0.148836         0.897052
 H         4.582186         3.782858        -2.330491
 H         0.974303         2.675234        -3.289817
 H         2.467338         3.040972        -4.334036
 H         3.275356         0.522288        -3.657728
 H         0.928661        -0.240816        -2.634607
 H         2.446767        -0.668916        -1.919109
 H         0.406766         1.668789        -1.007714
 H         2.211444         3.346775        -0.741787
 H         3.433587         2.213490        -0.339402
 H         2.263866         0.477157         1.033128
