19
Iteration:   249charge 0 multiplicity 1
 O         4.335656         3.010988        -2.289762
 C         3.028147         2.401818        -2.369681
 C         1.992045         2.488834        -3.569730
 C         2.631502         1.159458        -3.168578
 C         1.825810         0.200230        -2.278691
 C         1.333965         1.117543        -1.107587
 C         2.351739         2.331518        -0.944833
 C         1.337419         0.353699         0.239038
 O         0.608585         0.449297         1.181648
 H         4.840983         2.612523        -3.008698
 H         0.988734         2.577747        -3.379781
 H         2.389813         2.719306        -4.528105
 H         3.270118         0.769439        -3.977534
 H         1.031795        -0.294418        -2.938028
 H         2.502447        -0.584393        -1.805565
 H         0.302329         1.600371        -1.227043
 H         1.731541         3.177826        -0.568525
 H         3.249161         2.042020        -0.349640
 H         2.098454        -0.598981         0.264254
