19
Iteration:  3218charge 0 multiplicity 1
 O         4.252866         2.962069        -2.534117
 C         3.012581         2.370952        -2.290877
 C         1.994691         2.421652        -3.496578
 C         2.741567         1.127254        -3.059082
 C         1.940247         0.265731        -2.199979
 C         1.410861         1.116554        -1.092613
 C         2.459721         2.215646        -0.901601
 C         1.208665         0.328643         0.186274
 O         0.517644         0.581281         1.119225
 H         4.118895         3.916505        -2.626308
 H         0.938997         2.506897        -3.492957
 H         2.538660         3.065593        -4.219544
 H         3.190953         0.608301        -3.895590
 H         1.154402        -0.230219        -2.803768
 H         2.534735        -0.559964        -1.802643
 H         0.488604         1.593274        -1.433780
 H         1.922912         2.982125        -0.441695
 H         3.156283         1.828088        -0.234812
 H         1.928625        -0.545016         0.183767
