19
Iteration:   351charge 0 multiplicity 1
 O         4.296288         2.869347        -2.597163
 C         2.983474         2.454709        -2.391274
 C         1.915516         2.538467        -3.406022
 C         2.512590         1.214220        -3.122926
 C         1.956100         0.250280        -2.110730
 C         1.563885         1.105743        -1.021934
 C         2.604588         2.230533        -0.895319
 C         1.402187         0.483324         0.386408
 O         0.279852         0.303076         0.845258
 H         4.388963         3.687972        -2.061610
 H         0.852128         2.796201        -3.152495
 H         1.879586         2.951607        -4.452150
 H         3.144493         0.717559        -3.858028
 H         1.207619        -0.490051        -2.360652
 H         2.896484        -0.370119        -1.848327
 H         0.599592         1.565338        -1.248684
 H         2.222581         3.152743        -0.455829
 H         3.537729         1.959911        -0.287640
 H         2.303378        -0.051703         0.820260
