19
Iteration:  1958charge 0 multiplicity 1
 O         4.356384         2.817928        -2.515017
 C         3.032666         2.409709        -2.268274
 C         2.089129         2.587581        -3.407945
 C         2.589128         1.107198        -3.083127
 C         1.740439         0.205529        -2.261893
 C         1.293296         1.213570        -1.071855
 C         2.351703         2.316593        -0.898314
 C         1.428286         0.439755         0.172307
 O         0.596916         0.346065         1.011286
 H         4.742868         3.489142        -1.949418
 H         1.024517         2.627518        -3.111000
 H         2.220263         3.041520        -4.448265
 H         3.128944         0.605326        -3.824589
 H         0.866755        -0.081541        -2.783628
 H         2.159396        -0.702440        -1.876687
 H         0.259534         1.677222        -1.314841
 H         1.911726         3.274492        -0.555687
 H         3.081367         2.066699        -0.120341
 H         2.579999         0.023635         0.206005
