19
Iteration:  2355
 O         4.360617         2.922759        -2.502716
 C         3.076998         2.399361        -2.385981
 C         2.114592         2.450636        -3.472262
 C         2.691588         1.050147        -3.063047
 C         1.736141         0.238626        -2.196153
 C         1.277018         1.189526        -1.041164
 C         2.367660         2.390164        -0.977042
 C         1.365227         0.424531         0.271414
 O         0.506787         0.316691         1.117276
 H         4.485120         3.732805        -3.036646
 H         1.051170         2.714783        -3.203408
 H         2.494860         2.863821        -4.361354
 H         3.420515         0.747689        -3.821330
 H         0.931661        -0.055274        -2.818226
 H         2.198529        -0.803802        -1.839966
 H         0.328902         1.667680        -1.349958
 H         1.831117         3.300810        -0.966374
 H         3.012552         2.342499        -0.142851
 H         2.338241        -0.055334         0.421796
