19
Iteration:  1881charge 0 multiplicity 1
 O         4.261057         3.032142        -2.536079
 C         3.005232         2.401433        -2.300102
 C         2.069740         2.542383        -3.518355
 C         2.654036         1.188469        -3.194471
 C         1.761427         0.346741        -2.298612
 C         1.355144         1.087714        -0.944219
 C         2.576077         2.156779        -0.863818
 C         1.336638         0.331524         0.291211
 O         0.443529         0.381150         1.092825
 H         4.904863         2.460535        -2.989152
 H         1.040799         2.904741        -3.317054
 H         2.539044         3.085589        -4.320929
 H         3.345518         0.751607        -3.907260
 H         0.829434         0.023939        -2.689861
 H         2.236845        -0.576015        -1.977613
 H         0.374288         1.640842        -1.110264
 H         2.238811         3.005759        -0.281132
 H         3.380622         1.699715        -0.419271
 H         2.248908        -0.252497         0.384514
