19
Iteration:   606
 O         4.351633         2.913914        -2.588468
 C         2.979111         2.463571        -2.316164
 C         2.109372         2.515889        -3.556979
 C         2.607394         1.183474        -3.108298
 C         1.739221         0.378363        -2.227639
 C         1.297501         1.308759        -0.906773
 C         2.536065         2.260095        -0.910977
 C         1.386819         0.361698         0.290977
 O         0.445476         0.129585         1.086282
 H         4.245289         3.435142        -3.441757
 H         1.128835         2.846040        -3.545098
 H         2.557575         2.884955        -4.455043
 H         3.585833         0.794920        -3.493528
 H         0.736331         0.020617        -2.532674
 H         2.183857        -0.515695        -1.666903
 H         0.374466         1.699863        -1.247303
 H         2.314162         3.137112        -0.269349
 H         3.453428         1.608642        -0.485078
 H         2.315830        -0.264215         0.341779
