19
Iteration:  3796charge 0 multiplicity 1
 O         4.288514         2.924768        -2.380490
 C         3.013831         2.431927        -2.421893
 C         2.135182         2.473281        -3.663207
 C         2.666699         1.145131        -3.114862
 C         1.847837         0.155946        -2.192846
 C         1.381497         1.108498        -1.054135
 C         2.326393         2.276972        -0.974774
 C         1.385850         0.431769         0.341253
 O         0.456762         0.470016         1.148125
 H         4.330165         3.778224        -2.875720
 H         1.119439         2.816258        -3.503045
 H         2.625991         2.846696        -4.566496
 H         3.171089         0.515209        -3.806799
 H         0.899473        -0.164455        -2.593106
 H         2.479017        -0.710464        -1.994774
 H         0.395364         1.369233        -1.314916
 H         1.846360         3.171422        -0.418193
 H         3.320134         2.000740        -0.408722
 H         2.318191        -0.209287         0.510263
