19
Iteration:  2240
 O         4.285791         2.981299        -2.598742
 C         3.026948         2.342086        -2.393922
 C         2.041727         2.495855        -3.463803
 C         2.662604         1.065370        -3.111181
 C         1.846263         0.296322        -2.078688
 C         1.514445         1.253193        -0.911622
 C         2.585966         2.316481        -0.928661
 C         1.330299         0.419215         0.374192
 O         0.253634         0.284700         0.913712
 H         4.044957         3.430492        -3.438096
 H         0.940112         2.734115        -3.244349
 H         2.443541         2.865511        -4.376188
 H         3.289648         0.644892        -3.920698
 H         1.011192        -0.455937        -2.522218
 H         2.674298        -0.383602        -1.658474
 H         0.496843         1.571858        -1.178146
 H         2.111995         3.264378        -0.525167
 H         3.509636         1.951648        -0.394629
 H         2.260050        -0.131651         0.717986
