19
Iteration:  3578charge 0 multiplicity 1
 O         4.320892         2.895322        -2.570046
 C         2.954261         2.380228        -2.372102
 C         2.113038         2.567490        -3.623367
 C         2.581144         1.096780        -3.127817
 C         1.923342         0.258301        -2.155827
 C         1.497263         1.201226        -0.968934
 C         2.522553         2.362031        -0.923229
 C         1.313254         0.500774         0.434514
 O         0.274192         0.193091         1.043161
 H         4.278811         3.887894        -2.770395
 H         1.090652         2.682609        -3.603572
 H         2.539859         2.575024        -4.624727
 H         3.315153         0.570772        -3.749297
 H         1.038280        -0.284551        -2.493386
 H         2.707372        -0.518672        -1.826676
 H         0.377809         1.647178        -1.041726
 H         2.160648         3.424904        -0.795497
 H         3.341485         2.103897        -0.351700
 H         2.280812         0.096807         0.864894
