19
Iteration:   304charge 0 multiplicity 1
 O         4.211515         3.245384        -2.587189
 C         3.089099         2.354220        -2.370934
 C         2.045304         2.447745        -3.474245
 C         2.643637         1.106314        -3.113067
 C         1.767557         0.260738        -2.242816
 C         1.468868         1.131801        -1.011903
 C         2.588050         2.125926        -0.917043
 C         1.269293         0.313248         0.281780
 O         0.382112         0.401274         1.107996
 H         5.088386         2.802181        -2.372755
 H         1.083338         2.733982        -3.379737
 H         2.321400         2.865459        -4.358792
 H         3.471616         0.718963        -3.729744
 H         0.841412        -0.092414        -2.809157
 H         2.306190        -0.689110        -1.928381
 H         0.522981         1.758174        -1.126699
 H         2.190073         2.986193        -0.331048
 H         3.506976         1.757665        -0.362922
 H         2.215398        -0.046995         0.578366
