19
Iteration:   482
 O         4.441186         2.938840        -2.657320
 C         3.147076         2.407397        -2.430054
 C         2.125451         2.554248        -3.487875
 C         2.520313         1.122591        -3.065699
 C         1.624319         0.330767        -2.129827
 C         1.406659         1.297338        -0.942337
 C         2.503167         2.488445        -0.958456
 C         1.335506         0.491941         0.531383
 O         0.392156        -0.136870         0.948806
 H         4.489011         3.424211        -3.524045
 H         1.005712         2.985979        -3.448059
 H         2.566977         2.780598        -4.524522
 H         3.081592         0.631774        -3.842069
 H         0.723988        -0.097840        -2.574477
 H         2.191214        -0.645914        -1.683037
 H         0.402644         1.777605        -0.966761
 H         2.077629         3.501017        -0.753694
 H         3.355059         2.045739        -0.266113
 H         2.343091         0.446103         1.048310
