19
Iteration:  4569
 O         4.301195         2.851721        -2.628101
 C         3.033361         2.390311        -2.381730
 C         2.052537         2.361837        -3.487862
 C         2.695048         1.072843        -2.956683
 C         1.794897         0.259479        -2.073554
 C         1.395647         1.345136        -0.952718
 C         2.490302         2.456109        -1.030164
 C         1.384268         0.552817         0.362041
 O         0.352837         0.151117         0.889004
 H         4.393215         3.798182        -2.673588
 H         1.010755         2.527475        -3.416613
 H         2.451353         2.787044        -4.430037
 H         3.555131         0.610404        -3.608611
 H         0.909680        -0.131538        -2.553881
 H         2.308026        -0.609565        -1.689169
 H         0.399791         1.804731        -1.181381
 H         2.077623         3.296100        -0.476623
 H         3.308071         2.150402        -0.333753
 H         2.482100         0.456575         0.765120
