19
Iteration:  1439
 O         4.239916         2.910584        -2.593762
 C         3.022566         2.345719        -2.378975
 C         1.914431         2.631369        -3.364883
 C         2.602508         1.137051        -3.153170
 C         1.802091         0.339389        -2.250422
 C         1.402963         1.251190        -0.964572
 C         2.723234         2.172776        -0.887288
 C         1.302766         0.393009         0.236248
 O         0.444263         0.274708         1.017489
 H         4.523991         3.414775        -1.820902
 H         0.869482         2.715680        -3.003555
 H         2.227114         3.374072        -4.212874
 H         3.346799         0.772008        -3.904438
 H         1.072523        -0.289232        -2.757213
 H         2.514716        -0.506304        -1.873398
 H         0.592321         1.968486        -1.218073
 H         2.511869         3.121954        -0.299578
 H         3.421536         1.471727        -0.339638
 H         2.236527        -0.247265         0.134940
