19
Iteration:  3529charge 0 multiplicity 1
 O         4.288651         2.932679        -2.554552
 C         3.112550         2.337281        -2.376825
 C         2.071689         2.343793        -3.469858
 C         2.616697         1.065316        -3.086728
 C         1.792780         0.237066        -2.112876
 C         1.392229         1.352771        -0.986688
 C         2.504413         2.454587        -0.929431
 C         1.351486         0.553769         0.324059
 O         0.388181         0.130965         0.914397
 H         4.324064         3.809060        -2.893654
 H         1.007747         2.733415        -3.219433
 H         2.511911         2.875735        -4.331509
 H         3.270033         0.494817        -3.745728
 H         0.924394        -0.086764        -2.728481
 H         2.257059        -0.648139        -1.717008
 H         0.424509         1.725442        -1.047874
 H         2.137548         3.401194        -0.595235
 H         3.369089         2.177685        -0.230442
 H         2.357709         0.361678         0.742558
