19
Iteration:   883
 O         4.324938         2.772409        -2.490406
 C         2.945000         2.399110        -2.382293
 C         2.048076         2.635899        -3.553922
 C         2.516535         1.180258        -3.162357
 C         1.714575         0.336863        -2.124557
 C         1.396687         1.308027        -0.954204
 C         2.583760         2.381014        -0.937222
 C         1.448707         0.395652         0.320504
 O         0.467018         0.117637         0.932553
 H         4.362968         3.576119        -1.996818
 H         0.946609         2.855850        -3.625847
 H         2.652144         2.978606        -4.356521
 H         3.099648         0.470678        -3.824806
 H         0.784820        -0.311955        -2.449011
 H         2.453282        -0.420442        -1.779241
 H         0.406528         1.864350        -0.889383
 H         2.338738         3.301552        -0.303004
 H         3.435478         1.767094        -0.501012
 H         2.522671         0.035492         0.507810
