19
Iteration:  2301charge 0 multiplicity 1
 O         4.239481         2.821697        -2.524632
 C         2.927598         2.327744        -2.399436
 C         2.101193         2.545337        -3.658436
 C         2.613790         1.167403        -3.122704
 C         1.857506         0.265225        -2.118451
 C         1.459281         1.176687        -0.962997
 C         2.449127         2.361562        -0.925949
 C         1.352970         0.538433         0.353101
 O         0.424184         0.278108         1.018691
 H         4.550904         3.393256        -1.793593
 H         0.989547         2.590248        -3.677598
 H         2.612453         2.837910        -4.560404
 H         3.491623         0.806521        -3.670212
 H         1.040873        -0.268929        -2.466730
 H         2.651947        -0.498720        -1.829832
 H         0.488532         1.559830        -1.385846
 H         2.196301         3.305835        -0.487397
 H         3.337984         2.002703        -0.373298
 H         2.390749         0.090947         0.689474
