19
Iteration:    20
 O         4.381301         2.799293        -2.434977
 C         2.914000         2.400333        -2.329966
 C         1.900157         2.458780        -3.561297
 C         2.616165         1.176623        -3.079157
 C         1.993886         0.216003        -2.064181
 C         1.305335         1.197362        -1.042257
 C         2.383963         2.363770        -0.947450
 C         1.421871         0.477879         0.215152
 O         0.499280         0.377347         0.956049
 H         4.517493         3.467051        -3.124119
 H         0.803220         2.567284        -3.503060
 H         2.265128         2.959808        -4.430914
 H         3.422622         0.836425        -3.670126
 H         1.385755        -0.637961        -2.388974
 H         2.867490        -0.120824        -1.529537
 H         0.194352         1.559717        -1.186380
 H         2.069086         3.344088        -0.556260
 H         3.136139         1.870809        -0.338145
 H         2.340514        -0.154432         0.436845
