19
Iteration:  3184charge 0 multiplicity 1
 O         4.249805         3.090082        -2.265181
 C         3.057921         2.342819        -2.380304
 C         2.002485         2.386956        -3.481827
 C         2.734000         1.067918        -3.139385
 C         1.800529         0.177075        -2.308862
 C         1.362871         1.032512        -1.157971
 C         2.398502         2.083010        -0.990684
 C         1.352896         0.402833         0.254409
 O         0.573004         0.713660         1.096306
 H         4.204304         3.983686        -2.566001
 H         0.920037         2.447044        -3.259073
 H         2.311091         3.098020        -4.286599
 H         3.214534         0.536379        -3.893396
 H         0.997064        -0.133749        -2.992490
 H         2.372470        -0.691123        -1.941284
 H         0.326139         1.499034        -1.160419
 H         2.067214         3.022713        -0.505315
 H         3.209489         1.786050        -0.407571
 H         2.225153        -0.305702         0.512321
