19
Iteration:   343
 O         4.303668         2.963406        -2.555629
 C         2.980365         2.366589        -2.368651
 C         1.858530         2.545391        -3.419847
 C         2.490841         1.146820        -3.156021
 C         1.978417         0.245098        -2.133820
 C         1.533159         1.191911        -1.040738
 C         2.655736         2.196730        -0.912394
 C         1.354952         0.473753         0.310233
 O         0.323457         0.313671         0.904614
 H         4.480995         3.504997        -1.775832
 H         0.774290         2.645608        -2.941098
 H         2.239680         2.818102        -4.510673
 H         3.174212         0.741994        -3.875018
 H         1.184897        -0.452330        -2.325341
 H         2.799695        -0.290912        -1.660487
 H         0.642473         1.693397        -1.339839
 H         2.235851         3.157024        -0.563899
 H         3.492045         1.734232        -0.386502
 H         2.227936         0.028649         0.771971
