19
Iteration:  4119charge 0 multiplicity 1
 O         4.422685         2.991226        -2.533254
 C         3.099580         2.369201        -2.407436
 C         2.064211         2.407892        -3.523877
 C         2.640709         1.041284        -3.008661
 C         1.787484         0.233310        -2.154784
 C         1.309267         1.284270        -0.941688
 C         2.436009         2.381234        -1.021170
 C         1.371991         0.574379         0.345656
 O         0.392649         0.160677         0.961273
 H         4.227500         3.886412        -2.784410
 H         1.025614         2.582390        -3.219300
 H         2.410198         2.570641        -4.492585
 H         3.144457         0.502670        -3.898092
 H         0.869423        -0.239759        -2.562513
 H         2.383904        -0.584348        -1.562565
 H         0.233074         1.636296        -1.191871
 H         1.982533         3.386319        -0.770427
 H         3.266911         1.996887        -0.287465
 H         2.421971         0.337373         0.797448
