19
Iteration:  1219charge 0 multiplicity 1
 O         4.403248         2.878925        -2.608615
 C         3.024167         2.461025        -2.396583
 C         2.054333         2.579361        -3.414851
 C         2.620283         1.224452        -3.196517
 C         1.731417         0.302088        -2.172102
 C         1.316961         1.179818        -0.971717
 C         2.469138         2.230209        -0.905566
 C         1.428087         0.339650         0.301248
 O         0.405779         0.229729         1.034283
 H         4.544183         3.826573        -2.428483
 H         1.039275         2.826402        -3.186395
 H         2.372741         3.029180        -4.381116
 H         3.368810         0.822620        -3.806470
 H         0.831060         0.010863        -2.624652
 H         2.438139        -0.582731        -1.883484
 H         0.304068         1.481545        -1.158115
 H         2.144742         3.079967        -0.291476
 H         3.328073         1.914570        -0.215354
 H         2.467564         0.054072         0.566902
