19
Iteration:   695
 O         4.309599         2.829391        -2.497020
 C         2.944282         2.473750        -2.332478
 C         1.886759         2.636762        -3.462983
 C         2.570745         1.331891        -3.232975
 C         1.994419         0.209302        -2.250543
 C         1.408337         1.089954        -1.035382
 C         2.653552         2.112672        -0.825258
 C         1.286264         0.390841         0.306534
 O         0.370798         0.396727         1.087964
 H         4.310610         3.273388        -3.365681
 H         0.949416         2.635569        -3.216234
 H         2.060632         3.375356        -4.147450
 H         3.343007         0.994727        -3.893673
 H         1.212576        -0.482823        -2.688389
 H         2.896369        -0.468674        -2.132001
 H         0.527136         1.660910        -1.217767
 H         2.483588         3.042503        -0.319645
 H         3.629429         1.553247        -0.659482
 H         2.276391        -0.134482         0.525712
