19
Iteration:  4031charge 0 multiplicity 1
 O         4.367391         3.012921        -2.651505
 C         3.105421         2.280390        -2.369372
 C         1.957317         2.349117        -3.365091
 C         2.637181         1.029925        -3.142515
 C         1.895587         0.226132        -2.001775
 C         1.418806         1.333180        -0.988932
 C         2.514873         2.349693        -0.904901
 C         1.322435         0.641941         0.336603
 O         0.330978         0.190881         0.815677
 H         4.295818         3.712601        -2.028542
 H         0.939279         2.559990        -3.181597
 H         2.082150         2.944932        -4.263335
 H         3.065011         0.502094        -4.010412
 H         0.990806        -0.286100        -2.325194
 H         2.511137        -0.563945        -1.584471
 H         0.344083         1.561046        -1.296030
 H         2.191365         3.432252        -0.912300
 H         3.368394         2.025335        -0.139266
 H         2.337682         0.330351         0.668912
