19
Iteration:   874
 O         4.368224         2.743415        -2.559128
 C         2.974117         2.480874        -2.314169
 C         2.052589         2.536155        -3.527921
 C         2.475167         1.234438        -3.117169
 C         1.725318         0.360684        -2.179631
 C         1.401479         1.294592        -0.957173
 C         2.492187         2.296924        -0.901669
 C         1.455142         0.395251         0.241412
 O         0.468487         0.137890         0.963591
 H         4.528627         3.642768        -2.292177
 H         0.931354         2.875793        -3.559952
 H         2.638948         3.023581        -4.296929
 H         3.274038         0.819987        -3.717080
 H         0.831481        -0.307646        -2.474590
 H         2.510257        -0.338388        -1.754774
 H         0.272631         1.646198        -0.981487
 H         2.333165         3.298633        -0.310674
 H         3.448049         1.814008        -0.423479
 H         2.445551         0.232859         0.741880
