19
Iteration:  1878charge 0 multiplicity 1
 O         4.283820         3.051968        -2.540135
 C         3.004212         2.368049        -2.288898
 C         2.033074         2.548755        -3.510539
 C         2.656526         1.179858        -3.200928
 C         1.756616         0.325746        -2.279071
 C         1.358031         1.111616        -0.958428
 C         2.561968         2.156201        -0.852531
 C         1.338275         0.330944         0.284950
 O         0.455785         0.384236         1.070781
 H         4.879148         2.370300        -2.885160
 H         1.034420         2.840991        -3.340500
 H         2.481856         3.150791        -4.232338
 H         3.407937         0.753787        -3.970985
 H         0.775474         0.049976        -2.721123
 H         2.242581        -0.570747        -1.929781
 H         0.433396         1.678938        -1.140178
 H         2.224577         3.107906        -0.322317
 H         3.493670         1.664412        -0.366193
 H         2.201149        -0.262198         0.421738
