19
Iteration:   252charge 0 multiplicity 1
 O         4.314967         3.011430        -2.306216
 C         3.020515         2.406410        -2.355935
 C         2.001561         2.471809        -3.598338
 C         2.639922         1.167025        -3.138665
 C         1.829516         0.229723        -2.275076
 C         1.336510         1.089016        -1.083743
 C         2.399549         2.329116        -0.944681
 C         1.333016         0.333321         0.238853
 O         0.591387         0.459331         1.174707
 H         4.824251         2.565393        -3.040467
 H         0.935172         2.619015        -3.465229
 H         2.297343         2.876066        -4.548388
 H         3.316151         0.787276        -3.939366
 H         1.022430        -0.166976        -2.888243
 H         2.450051        -0.637051        -1.889029
 H         0.315196         1.502475        -1.211688
 H         1.768945         3.130077        -0.649012
 H         3.255208         2.072795        -0.265786
 H         2.107514        -0.575998         0.243746
