19
Iteration:   299
 O         4.204102         3.236287        -2.589482
 C         3.074286         2.397331        -2.361455
 C         2.073893         2.413459        -3.497586
 C         2.659985         1.153601        -3.117111
 C         1.743049         0.217053        -2.261656
 C         1.446603         1.087366        -0.992951
 C         2.594584         2.154931        -0.838867
 C         1.281937         0.311977         0.272566
 O         0.390543         0.420744         1.106074
 H         5.021802         2.727504        -2.602397
 H         0.919846         2.754710        -3.455659
 H         2.602506         2.954243        -4.431783
 H         3.392745         0.618234        -3.711798
 H         0.827584         0.021206        -2.792916
 H         2.222613        -0.735179        -2.133348
 H         0.584652         1.697873        -1.134214
 H         2.166897         3.101394        -0.448071
 H         3.456631         1.767096        -0.327183
 H         2.306192        -0.226723         0.673688
