19
Iteration:   528charge 0 multiplicity 1
 O         4.340241         2.635164        -2.511365
 C         2.968857         2.485095        -2.330719
 C         1.980652         2.507450        -3.528841
 C         2.467978         1.184091        -3.069736
 C         1.820517         0.289154        -2.108189
 C         1.398702         1.377044        -0.883639
 C         2.430135         2.495591        -0.980106
 C         1.504699         0.551636         0.280372
 O         0.505069         0.030305         0.800693
 H         4.798425         3.254765        -1.910565
 H         0.902917         2.825219        -3.269605
 H         2.368141         2.946631        -4.472462
 H         3.207828         0.675177        -3.687049
 H         0.898121        -0.237114        -2.363048
 H         2.511669        -0.498320        -1.553136
 H         0.393728         1.638994        -1.146619
 H         2.028826         3.471499        -0.648560
 H         3.430569         2.235890        -0.387012
 H         2.590514         0.351790         0.582170
