19
Iteration:  1303charge 0 multiplicity 1
 O         4.276497         2.953805        -2.424602
 C         2.964851         2.411320        -2.362811
 C         2.055217         2.637166        -3.498113
 C         2.619093         1.184233        -3.184310
 C         1.708998         0.311255        -2.294946
 C         1.489946         1.128550        -0.948890
 C         2.525471         2.213972        -0.959736
 C         1.408522         0.353439         0.367451
 O         0.448005         0.298941         1.060883
 H         4.710065         2.465390        -3.157540
 H         1.021590         2.801841        -3.291671
 H         2.462171         3.284743        -4.301671
 H         3.225907         0.666735        -3.981765
 H         0.707946         0.035152        -2.779153
 H         2.263778        -0.604226        -2.252998
 H         0.497254         1.592792        -1.118698
 H         2.040799         3.104861        -0.576896
 H         3.422961         2.033668        -0.362636
 H         2.306017        -0.291510         0.563944
