19
Iteration:  1687
 O         4.323472         2.872281        -2.667311
 C         3.102835         2.408862        -2.408192
 C         2.114355         2.673931        -3.424779
 C         2.513691         1.216477        -3.174573
 C         1.704641         0.325531        -2.170421
 C         1.380505         1.290145        -0.885871
 C         2.543887         2.400356        -0.934927
 C         1.369144         0.404758         0.432448
 O         0.385731        -0.029020         0.942655
 H         5.040575         2.205139        -2.542586
 H         0.987895         2.935593        -3.304949
 H         2.635340         3.008745        -4.369456
 H         3.052804         0.695975        -3.961857
 H         0.670158         0.183194        -2.603585
 H         2.342144        -0.540104        -1.852003
 H         0.419608         1.757282        -0.838379
 H         2.287150         3.302932        -0.389772
 H         3.475028         2.018797        -0.320218
 H         2.503530         0.300582         0.898966
