19
Iteration:  3322
 O         4.370293         2.992449        -2.607677
 C         3.031851         2.394199        -2.393399
 C         2.027543         2.431511        -3.481601
 C         2.679148         1.068464        -3.073954
 C         1.814070         0.230921        -2.132841
 C         1.388847         1.180351        -0.953773
 C         2.578276         2.323286        -0.948983
 C         1.295857         0.540419         0.350568
 O         0.308473         0.196549         0.983119
 H         4.312330         3.955895        -2.876032
 H         0.964274         2.597426        -3.229307
 H         2.359105         2.997431        -4.413396
 H         3.329669         0.690925        -3.813884
 H         0.931874        -0.109626        -2.666754
 H         2.422482        -0.564272        -1.688348
 H         0.426291         1.683150        -1.189627
 H         2.314410         3.311319        -0.529015
 H         3.496984         2.032168        -0.369021
 H         2.308776         0.350350         0.708978
