19
Iteration:  4334
 O         4.253949         2.927837        -2.487920
 C         3.035553         2.404470        -2.321379
 C         1.913116         2.324075        -3.451796
 C         2.644982         1.133438        -3.103755
 C         1.948906         0.237021        -2.159241
 C         1.470179         1.113132        -1.101334
 C         2.565073         2.274969        -0.936719
 C         1.313114         0.371181         0.225332
 O         0.372464         0.562715         0.995290
 H         4.460734         3.891509        -2.380278
 H         0.806947         2.525024        -3.003766
 H         2.144869         2.741478        -4.453925
 H         3.400550         0.882452        -3.931092
 H         1.220943        -0.443993        -2.682442
 H         2.560956        -0.470010        -1.597245
 H         0.542240         1.728847        -1.204472
 H         2.023472         3.250968        -0.662847
 H         3.373934         1.987274        -0.202759
 H         2.264923        -0.231137         0.519172
