19
Iteration:   688
 O         4.308806         2.870271        -2.519477
 C         3.004055         2.441442        -2.294242
 C         1.888183         2.662414        -3.460021
 C         2.574193         1.300543        -3.176235
 C         1.995262         0.217819        -2.309337
 C         1.437594         1.100215        -1.033255
 C         2.591498         2.076437        -0.873459
 C         1.295397         0.439936         0.326340
 O         0.369855         0.373463         1.110779
 H         4.362108         3.200847        -3.399714
 H         0.704780         2.671789        -3.238387
 H         2.209403         3.340561        -4.332113
 H         3.223527         0.951857        -3.989159
 H         1.136085        -0.388866        -2.685832
 H         2.833254        -0.448697        -2.081228
 H         0.429552         1.511239        -1.459515
 H         2.553028         2.916954        -0.099736
 H         3.509995         1.551906        -0.517713
 H         2.256567        -0.061647         0.529654
