19
Iteration:  2523
 O         4.327939         3.027092        -2.535062
 C         3.017112         2.414198        -2.379388
 C         2.141073         2.485599        -3.580583
 C         2.565171         1.165493        -3.218246
 C         1.857682         0.175492        -2.203561
 C         1.378387         1.021810        -0.995391
 C         2.481733         2.156590        -0.964017
 C         1.362584         0.465373         0.407786
 O         0.337344         0.454080         1.157763
 H         4.239377         3.979525        -2.660610
 H         1.175207         3.069074        -3.522374
 H         2.780843         2.763880        -4.486474
 H         3.368911         0.707622        -3.713753
 H         0.949631        -0.325962        -2.695719
 H         2.584814        -0.719265        -1.895190
 H         0.367608         1.486283        -1.097663
 H         2.224679         3.169599        -0.546879
 H         3.361624         1.835974        -0.467590
 H         2.168742        -0.268443         0.662901
