19
Iteration:   911
 O         4.454497         2.951352        -2.519888
 C         3.126197         2.360172        -2.453225
 C         2.025609         2.524639        -3.485377
 C         2.478445         1.161614        -3.129379
 C         1.605702         0.373234        -2.149269
 C         1.411791         1.262097        -0.903376
 C         2.558951         2.387227        -1.062077
 C         1.430504         0.372987         0.342163
 O         0.400676         0.036644         0.984063
 H         4.475196         3.599592        -1.804811
 H         1.095711         2.909466        -3.183852
 H         2.393892         2.829364        -4.496593
 H         2.949549         0.519101        -3.895732
 H         0.663143         0.139793        -2.531108
 H         2.159372        -0.564256        -1.948658
 H         0.511140         1.832994        -0.872115
 H         2.149210         3.313948        -0.693437
 H         3.355209         2.131517        -0.367507
 H         2.439364         0.172930         0.780270
