19
Iteration:  1624
 O         4.367569         2.700828        -2.590588
 C         3.048898         2.410147        -2.352106
 C         1.998462         2.617908        -3.497256
 C         2.484289         1.254184        -3.146214
 C         1.651295         0.438129        -2.107673
 C         1.419061         1.349861        -0.924079
 C         2.614336         2.328012        -0.885573
 C         1.451369         0.453244         0.315881
 O         0.452345        -0.029742         0.869379
 H         4.443542         3.518277        -2.071653
 H         0.855872         2.759041        -3.276834
 H         2.424129         3.074346        -4.461830
 H         3.154589         0.717981        -3.826029
 H         0.722219        -0.147486        -2.445732
 H         2.282706        -0.396657        -1.812819
 H         0.471377         1.914505        -1.024818
 H         2.168780         3.310552        -0.582730
 H         3.363267         1.919688        -0.252198
 H         2.501387         0.364809         0.781972
