19
Iteration:  1022
 O         4.358337         2.912691        -2.581365
 C         3.066408         2.398822        -2.300153
 C         2.015718         2.568513        -3.432254
 C         2.488852         1.206020        -3.156285
 C         1.749955         0.351714        -2.215702
 C         1.499712         1.165676        -0.960787
 C         2.596489         2.276434        -0.852920
 C         1.368240         0.490257         0.390467
 O         0.359487         0.102166         0.902617
 H         4.374009         3.145557        -3.517539
 H         0.970922         2.767168        -3.149517
 H         2.217269         3.080887        -4.311092
 H         3.356783         0.767408        -3.744690
 H         0.755295         0.110026        -2.492355
 H         2.269702        -0.630238        -2.204362
 H         0.598085         1.693194        -1.179555
 H         2.194529         3.175915        -0.434045
 H         3.467798         1.861965        -0.299882
 H         2.401921         0.301896         0.859545
