19
Iteration:  4088
 O         4.336700         2.870015        -2.628715
 C         3.017162         2.407899        -2.411161
 C         2.167673         2.491072        -3.654035
 C         2.621037         1.150744        -3.037908
 C         1.864145         0.295367        -2.171938
 C         1.437246         1.243878        -0.892998
 C         2.506220         2.455413        -0.960974
 C         1.298614         0.461085         0.503128
 O         0.259529         0.096787         1.009800
 H         4.102475         3.714420        -3.115925
 H         1.050014         2.587774        -3.588148
 H         2.658444         2.665962        -4.563465
 H         3.279997         0.511364        -3.755874
 H         1.114199        -0.418998        -2.497077
 H         2.624928        -0.176276        -1.629327
 H         0.359299         1.448448        -1.108538
 H         2.129505         3.448919        -0.673543
 H         3.437978         2.395304        -0.287722
 H         2.269553         0.287423         0.967159
