19
Iteration:   557charge 0 multiplicity 1
 O         4.369598         2.790191        -2.447415
 C         3.075070         2.371985        -2.401667
 C         1.972691         2.524754        -3.487943
 C         2.525833         1.153630        -3.129498
 C         1.712196         0.328560        -2.199211
 C         1.451238         1.247899        -0.884214
 C         2.437918         2.438137        -1.051950
 C         1.490012         0.513553         0.398026
 O         0.489638         0.087128         0.865499
 H         4.713966         3.439921        -1.856130
 H         0.872278         2.796447        -3.166874
 H         2.174648         3.003488        -4.486102
 H         2.951256         0.580290        -3.928183
 H         0.775735        -0.039174        -2.592153
 H         2.193209        -0.525518        -1.796547
 H         0.400105         1.608272        -0.996568
 H         1.947842         3.419704        -0.919537
 H         3.294112         2.314033        -0.435743
 H         2.473380         0.416699         0.893977
