19
Iteration:  2870
 O         4.362067         2.948537        -2.625122
 C         3.072561         2.392818        -2.440763
 C         2.105394         2.453947        -3.560420
 C         2.628273         1.076113        -3.047519
 C         1.716167         0.380009        -2.027496
 C         1.452960         1.340190        -0.866522
 C         2.535888         2.412299        -0.920174
 C         1.309540         0.527533         0.392754
 O         0.316224        -0.004936         0.890699
 H         4.420330         3.394807        -3.487897
 H         0.998940         2.450387        -3.386928
 H         2.528838         2.599188        -4.601112
 H         3.498938         0.603036        -3.609560
 H         0.712903        -0.102659        -2.407684
 H         2.279651        -0.600627        -1.801062
 H         0.507526         1.796878        -1.082079
 H         2.269068         3.349956        -0.525788
 H         3.319427         1.979980        -0.309412
 H         2.276259         0.438745         0.936700
