19
Iteration:  2819charge 0 multiplicity 1
 O         4.438175         2.721113        -2.608891
 C         3.015534         2.425359        -2.427370
 C         2.032375         2.456912        -3.592331
 C         2.564648         1.120266        -2.985567
 C         1.778495         0.321047        -1.993109
 C         1.349907         1.371149        -0.850771
 C         2.452036         2.521295        -0.972457
 C         1.392056         0.538315         0.447931
 O         0.415348        -0.009819         0.757938
 H         4.659558         3.678059        -2.456519
 H         1.032107         2.884195        -3.337645
 H         2.500040         2.768530        -4.516208
 H         3.247474         0.567401        -3.609429
 H         0.977392        -0.219807        -2.333406
 H         2.408825        -0.502412        -1.736957
 H         0.383705         1.822074        -1.170016
 H         1.851997         3.496392        -0.984024
 H         3.351026         2.659826        -0.307016
 H         2.427255         0.400106         0.876629
