19
Iteration:  2460charge 0 multiplicity 1
 O         4.323196         2.901252        -2.435539
 C         3.020610         2.438813        -2.357337
 C         2.078682         2.484210        -3.560712
 C         2.644796         1.135667        -3.109078
 C         1.811204         0.185422        -2.218497
 C         1.322607         1.072065        -1.032378
 C         2.415625         2.351450        -0.892934
 C         1.379161         0.419681         0.266722
 O         0.496549         0.472529         1.088425
 H         4.486815         3.000020        -3.400454
 H         1.035185         2.784310        -3.385721
 H         2.276887         2.721667        -4.583330
 H         3.502385         0.801079        -3.691678
 H         0.981954        -0.265652        -2.887521
 H         2.429116        -0.594373        -1.889138
 H         0.313170         1.418663        -1.254142
 H         1.826678         3.232928        -0.502188
 H         3.104114         2.138242         0.009121
 H         2.374974        -0.249973         0.334757
