19
Iteration:  4445charge 0 multiplicity 1
 O         4.353791         2.974214        -2.609793
 C         3.069978         2.340467        -2.323098
 C         2.073272         2.345337        -3.444787
 C         2.670824         1.002403        -3.096523
 C         1.800737         0.281007        -2.166881
 C         1.301505         1.269309        -1.025538
 C         2.414736         2.357785        -0.893062
 C         1.365788         0.476268         0.221155
 O         0.436750         0.313478         0.991795
 H         4.195055         3.909103        -2.501977
 H         1.166060         2.560814        -3.018700
 H         2.395971         2.851757        -4.338101
 H         3.319433         0.468716        -3.603041
 H         1.135637        -0.345786        -2.733115
 H         2.361786        -0.421968        -1.649770
 H         0.361333         1.764720        -0.887727
 H         2.085308         3.447324        -0.858219
 H         3.179948         2.134563        -0.133022
 H         2.306485         0.159749         0.682189
