19
Iteration:   556charge 0 multiplicity 1
 O         4.369174         2.782857        -2.446183
 C         3.070576         2.368890        -2.398061
 C         1.959925         2.531905        -3.493691
 C         2.531171         1.154075        -3.122982
 C         1.713463         0.330258        -2.197088
 C         1.457782         1.248785        -0.892222
 C         2.440848         2.442642        -1.044375
 C         1.496626         0.511857         0.400249
 O         0.490581         0.089894         0.856852
 H         4.689612         3.423580        -1.825550
 H         0.906675         2.779093        -3.184280
 H         2.155664         2.981181        -4.480766
 H         2.943938         0.569691        -3.936264
 H         0.760644        -0.051884        -2.578375
 H         2.170377        -0.487751        -1.768416
 H         0.408836         1.602146        -1.029847
 H         1.932976         3.409921        -0.911868
 H         3.268701         2.320372        -0.444823
 H         2.486120         0.422411         0.895286
