19
Iteration:   588charge 0 multiplicity 1
 O         4.347880         2.907895        -2.628024
 C         3.104558         2.384707        -2.368144
 C         2.145064         2.619077        -3.575445
 C         2.595858         1.179179        -3.074502
 C         1.671230         0.349492        -2.170041
 C         1.328157         1.224279        -1.004738
 C         2.483366         2.290206        -0.901192
 C         1.323431         0.451043         0.320894
 O         0.460620         0.025848         1.138239
 H         4.441233         3.838455        -3.020620
 H         1.105001         2.877298        -3.491980
 H         2.690851         2.939968        -4.458014
 H         3.052049         0.579214        -3.842881
 H         0.842477        -0.099298        -2.799851
 H         2.314998        -0.461653        -1.795020
 H         0.370129         1.833062        -1.034166
 H         2.267806         3.291723        -0.487727
 H         3.288165         2.015238        -0.284302
 H         2.387563         0.264144         0.667402
