19
Iteration:  2280charge 0 multiplicity 1
 O         4.414799         2.924742        -2.595923
 C         3.028674         2.425757        -2.410455
 C         1.959341         2.429818        -3.444334
 C         2.670380         1.084097        -3.063498
 C         1.846230         0.233024        -2.164151
 C         1.361093         1.176131        -1.019008
 C         2.398382         2.291735        -0.981689
 C         1.356837         0.537795         0.335391
 O         0.391291         0.280690         0.975865
 H         4.724212         3.677299        -2.067918
 H         0.992518         2.857187        -3.086409
 H         2.338511         2.858024        -4.359481
 H         3.285689         0.638758        -3.859600
 H         1.105522        -0.361420        -2.580080
 H         2.481560        -0.441654        -1.630121
 H         0.436412         1.759568        -1.036430
 H         2.084363         3.271818        -0.596621
 H         3.323281         2.003410        -0.409772
 H         2.392613         0.311250         0.844179
