19
Iteration:  4956charge 0 multiplicity 1
 O         4.307149         2.927836        -2.527159
 C         3.092216         2.348445        -2.360289
 C         2.052899         2.288834        -3.509246
 C         2.697859         1.070435        -2.999158
 C         1.851531         0.264264        -2.168790
 C         1.347432         1.226647        -1.008390
 C         2.352930         2.391721        -0.976723
 C         1.442041         0.464064         0.315219
 O         0.410301         0.391165         0.974714
 H         4.106661         3.882106        -2.731064
 H         0.979811         2.392811        -3.233536
 H         2.388926         2.821314        -4.371186
 H         3.421743         0.745333        -3.701556
 H         0.932051        -0.134558        -2.545514
 H         2.460558        -0.586925        -1.806476
 H         0.369877         1.584792        -1.350155
 H         1.731464         3.249513        -0.797794
 H         3.132828         2.317392        -0.207786
 H         2.474232        -0.023324         0.408579
