19
Iteration:  2537charge 0 multiplicity 1
 O         4.275862         2.960727        -2.621798
 C         2.993874         2.423918        -2.418784
 C         2.153050         2.595120        -3.652651
 C         2.705163         1.134014        -3.087230
 C         1.839873         0.212054        -2.249090
 C         1.410250         1.077681        -0.902615
 C         2.507498         2.205481        -0.933191
 C         1.315526         0.320131         0.429191
 O         0.324479         0.479178         1.133394
 H         4.127404         3.929555        -2.463075
 H         1.058090         2.569228        -3.586146
 H         2.642010         2.990477        -4.482394
 H         3.383794         0.667351        -3.837043
 H         0.905957        -0.313159        -2.789887
 H         2.542998        -0.613788        -1.941987
 H         0.444217         1.484034        -1.199004
 H         2.101248         2.983304        -0.260412
 H         3.349825         1.688886        -0.360386
 H         2.249027        -0.031643         0.842219
