19
Iteration:  2345
 O         4.431618         2.918886        -2.495744
 C         3.074093         2.366221        -2.420654
 C         2.078869         2.505738        -3.621979
 C         2.690869         1.103123        -3.031529
 C         1.754556         0.237630        -2.179964
 C         1.359186         1.226058        -0.993888
 C         2.332005         2.345938        -1.034089
 C         1.346239         0.393692         0.295550
 O         0.471061         0.301418         1.137167
 H         4.097797         3.828270        -2.702667
 H         1.150381         2.995210        -3.177325
 H         2.334779         2.892706        -4.571788
 H         3.382502         0.496425        -3.659031
 H         0.906523        -0.063614        -2.719472
 H         2.294788        -0.711999        -1.691748
 H         0.283172         1.529871        -1.086834
 H         1.704364         3.148957        -0.717654
 H         3.024263         2.289554        -0.223147
 H         2.275592        -0.067725         0.462510
