19
Iteration:   288charge 0 multiplicity 1
 O         4.180664         3.184299        -2.582397
 C         2.993196         2.445433        -2.276929
 C         2.127242         2.470727        -3.571802
 C         2.707816         1.111379        -3.108519
 C         1.738145         0.227801        -2.319246
 C         1.432491         1.032010        -0.971201
 C         2.583155         2.216807        -0.828270
 C         1.359951         0.317917         0.352848
 O         0.405173         0.456693         1.075432
 H         4.818458         2.497212        -2.914899
 H         0.908569         2.506386        -3.532113
 H         2.784787         3.047606        -4.408919
 H         3.295322         0.637443        -3.894946
 H         0.788494         0.145935        -2.803741
 H         2.105557        -0.767075        -2.145982
 H         0.447907         1.408015        -1.110105
 H         2.228691         3.148645        -0.314305
 H         3.365915         1.935811        -0.138461
 H         2.091360        -0.654031         0.392635
