19
Iteration:  2947charge 0 multiplicity 1
 O         4.337857         2.979238        -2.557109
 C         2.993346         2.480017        -2.421222
 C         2.050607         2.619588        -3.587472
 C         2.594686         1.131252        -3.147355
 C         1.970373         0.150688        -2.081713
 C         1.526848         1.065985        -0.968993
 C         2.540560         2.323555        -0.988373
 C         1.294089         0.320491         0.471283
 O         0.207255         0.385019         1.022521
 H         4.201257         3.098920        -3.486627
 H         1.031066         2.794408        -3.145699
 H         2.396932         3.047624        -4.524630
 H         3.404083         0.774829        -3.717745
 H         1.133225        -0.256543        -2.710437
 H         2.749024        -0.596109        -1.731467
 H         0.574168         1.457388        -1.133088
 H         2.150642         3.132637        -0.481334
 H         3.395743         2.022493        -0.360452
 H         2.105610        -0.388391         0.867762
