19
Iteration:   146charge 0 multiplicity 1
 O         4.285874         3.055126        -2.428980
 C         3.010101         2.395591        -2.330842
 C         2.268435         2.454757        -3.601298
 C         2.709476         1.018964        -3.090317
 C         1.579670         0.192852        -2.329385
 C         1.242433         1.140986        -1.076702
 C         2.287752         2.453837        -1.012208
 C         1.339171         0.345979         0.173552
 O         0.744844         0.361730         1.258707
 H         4.435267         3.659148        -1.642970
 H         1.123194         2.533401        -3.386959
 H         2.840399         2.884173        -4.433855
 H         3.494612         0.412123        -3.584640
 H         0.681697        -0.256311        -2.770141
 H         2.198344        -0.633755        -1.961237
 H         0.247115         1.429706        -1.106847
 H         1.788375         3.395351        -0.733077
 H         2.959980         2.303017        -0.166779
 H         2.021427        -0.418639         0.054538
