19
Iteration:  4699
 O         4.341064         2.983763        -2.579717
 C         3.011330         2.401176        -2.410686
 C         1.951895         2.472835        -3.688910
 C         2.638717         1.115298        -3.131232
 C         2.008695         0.186623        -2.128171
 C         1.479063         1.145927        -0.913922
 C         2.573412         2.266363        -0.951270
 C         1.280142         0.402453         0.406867
 O         0.226998         0.432606         1.066048
 H         4.315832         3.913420        -2.292074
 H         0.983869         2.591042        -3.386251
 H         2.357355         2.702046        -4.629205
 H         3.237736         0.714356        -3.862167
 H         1.193250        -0.466909        -2.415437
 H         2.958149        -0.425181        -1.776386
 H         0.524365         1.576041        -1.202820
 H         2.067067         3.202831        -0.520688
 H         3.345564         1.774896        -0.365204
 H         2.119020        -0.120162         0.808382
