19
Iteration:   114charge 0 multiplicity 1
 O         4.191671         3.068194        -2.371080
 C         2.981778         2.377756        -2.334276
 C         2.214951         2.308852        -3.637498
 C         2.782767         1.073290        -3.042343
 C         1.663522         0.391684        -2.288435
 C         1.202082         1.205906        -1.065262
 C         2.289848         2.319429        -0.969931
 C         1.397921         0.421409         0.157610
 O         0.733515         0.369345         1.160825
 H         4.768159         2.472849        -1.879343
 H         1.046770         2.315951        -3.609006
 H         2.416714         2.845499        -4.565924
 H         3.540563         0.400472        -3.495533
 H         0.749001         0.060682        -2.841449
 H         2.151144        -0.551657        -1.910973
 H         0.170987         1.401030        -1.092439
 H         1.940374         3.278511        -0.515509
 H         3.094085         1.897717        -0.299285
 H         2.445821        -0.277482         0.074652
