19
Iteration:  1921charge 0 multiplicity 1
 O         4.352086         2.936407        -2.340762
 C         3.075683         2.417179        -2.488915
 C         2.095181         2.564183        -3.586317
 C         2.555724         1.177904        -3.280219
 C         1.735718         0.293425        -2.240142
 C         1.369964         1.136400        -0.943383
 C         2.479957         2.236507        -0.911934
 C         1.307742         0.344019         0.295514
 O         0.489136         0.329615         1.170293
 H         4.555709         3.586251        -3.045056
 H         1.089563         2.818867        -3.337237
 H         2.455397         2.999729        -4.458447
 H         3.202674         0.607105        -4.038082
 H         0.813603        -0.000906        -2.817530
 H         2.398263        -0.562348        -2.096034
 H         0.363070         1.525208        -0.982987
 H         2.066085         3.238329        -0.549250
 H         3.412818         1.906844        -0.240238
 H         2.261387        -0.402448         0.503721
