19
Iteration:  4014charge 0 multiplicity 1
 O         4.280164         2.991398        -2.686181
 C         3.118597         2.331320        -2.404674
 C         2.019407         2.417736        -3.444830
 C         2.654804         1.077891        -3.055802
 C         1.873582         0.243685        -2.109630
 C         1.439938         1.270031        -0.955088
 C         2.616167         2.312523        -0.994110
 C         1.292787         0.563375         0.403213
 O         0.259133         0.178159         0.890124
 H         4.349482         3.781371        -2.170695
 H         0.906253         2.556744        -3.083755
 H         2.284926         2.883161        -4.390410
 H         3.430040         0.530591        -3.688857
 H         0.956461        -0.354635        -2.402159
 H         2.567664        -0.431073        -1.528172
 H         0.507752         1.786117        -1.158883
 H         2.129568         3.155417        -0.538844
 H         3.336181         2.092894        -0.260575
 H         2.232196         0.687866         1.007611
