19
Iteration:  2465charge 0 multiplicity 1
 O         4.370389         2.894594        -2.424415
 C         2.975538         2.435157        -2.321368
 C         2.033310         2.456142        -3.534901
 C         2.645014         1.160109        -3.093253
 C         1.811952         0.197285        -2.211633
 C         1.335319         1.053624        -1.030866
 C         2.401452         2.344330        -0.866076
 C         1.391060         0.428859         0.183992
 O         0.508602         0.487519         1.062824
 H         4.500385         3.077677        -3.370151
 H         0.945278         2.513573        -3.346919
 H         2.240268         2.725925        -4.607271
 H         3.360025         0.609232        -3.773633
 H         1.066647        -0.209214        -2.824393
 H         2.452473        -0.689352        -1.828763
 H         0.399399         1.597537        -1.269512
 H         1.875790         3.243897        -0.602885
 H         3.173555         2.185070        -0.114904
 H         2.318879        -0.059047         0.359168
