19
Iteration:  4712
 O         4.261875         2.946224        -2.574961
 C         3.009725         2.434388        -2.490669
 C         2.022446         2.438745        -3.561847
 C         2.706558         1.131870        -3.171080
 C         1.990618         0.255098        -2.077543
 C         1.455009         1.097637        -0.979203
 C         2.514560         2.200506        -0.950446
 C         1.274344         0.383165         0.421112
 O         0.259902         0.473561         1.065244
 H         4.112053         3.905912        -2.469827
 H         0.949835         2.764671        -3.599133
 H         2.443526         2.896099        -4.419931
 H         3.471357         0.729559        -3.731915
 H         1.236722        -0.294700        -2.624616
 H         2.698366        -0.475663        -1.611511
 H         0.452983         1.471020        -1.196932
 H         2.358840         3.145084        -0.368482
 H         3.551580         1.937740        -0.574609
 H         2.204099        -0.084498         0.801217
