19
Iteration:  3513charge 0 multiplicity 1
 O         4.364812         2.943702        -2.600544
 C         3.087564         2.304230        -2.314843
 C         2.028213         2.405670        -3.384327
 C         2.663908         0.994667        -3.006066
 C         1.690491         0.289822        -2.050903
 C         1.392927         1.354209        -0.993178
 C         2.488177         2.392270        -0.951909
 C         1.376785         0.570595         0.234467
 O         0.451220         0.146910         0.825662
 H         4.020549         3.836830        -2.618285
 H         1.023728         2.431005        -3.192829
 H         2.340671         2.808473        -4.347744
 H         3.338880         0.474235        -3.722394
 H         0.706911        -0.087680        -2.329786
 H         2.379190        -0.463484        -1.551475
 H         0.397298         1.803166        -1.409830
 H         1.918759         3.418463        -0.972965
 H         3.184861         2.349417        -0.020557
 H         2.419485         0.240299         0.492947
