19
Iteration:   441charge 0 multiplicity 1
 O         4.259948         3.026974        -2.422067
 C         2.956920         2.335813        -2.351538
 C         1.896835         2.364860        -3.520112
 C         2.572961         1.067930        -3.131911
 C         1.672891         0.378700        -2.135649
 C         1.487463         1.410916        -0.892531
 C         2.756432         2.302543        -0.876092
 C         1.458457         0.537345         0.354326
 O         0.428510         0.092143         0.733284
 H         4.626923         2.779868        -3.274904
 H         0.778005         2.680209        -3.513624
 H         2.320033         2.719686        -4.480194
 H         3.321038         0.459834        -3.604481
 H         0.737281         0.060626        -2.565754
 H         2.126576        -0.626720        -1.816220
 H         0.533207         1.869182        -1.030358
 H         2.545775         3.230110        -0.358965
 H         3.524801         1.654016        -0.433473
 H         2.361187         0.498965         1.072089
