19
Iteration:  3442charge 0 multiplicity 1
 O         4.422155         2.865794        -2.575115
 C         3.041181         2.415380        -2.414313
 C         2.131746         2.547600        -3.585005
 C         2.552230         1.134442        -3.139248
 C         1.783767         0.243010        -2.069202
 C         1.430165         1.219388        -0.871016
 C         2.397357         2.354213        -1.085302
 C         1.348909         0.660248         0.558173
 O         0.352332         0.020114         0.903266
 H         4.387198         3.807867        -2.711571
 H         1.024917         2.762387        -3.684209
 H         2.722597         2.793487        -4.541752
 H         3.313073         0.731532        -3.718537
 H         0.956704        -0.341185        -2.519104
 H         2.557475        -0.451581        -1.671061
 H         0.446347         1.742138        -0.859691
 H         2.014487         3.201134        -0.636152
 H         3.218911         2.068987        -0.457023
 H         2.257010         0.613515         1.148892
