19
Iteration:  3374
 O         4.337273         2.868153        -2.678362
 C         3.011733         2.479342        -2.383668
 C         2.091618         2.409286        -3.572461
 C         2.561576         1.140441        -2.955811
 C         1.840583         0.280881        -2.035985
 C         1.478591         1.358570        -0.887696
 C         2.513362         2.407746        -0.962253
 C         1.359122         0.414505         0.402636
 O         0.286489         0.109953         0.873179
 H         4.450883         3.874648        -2.692593
 H         1.047800         2.725622        -3.643775
 H         2.659762         2.480556        -4.512212
 H         3.324066         0.713946        -3.699098
 H         0.843671        -0.095888        -2.420871
 H         2.462819        -0.577564        -1.700398
 H         0.518452         1.743728        -1.130760
 H         2.180902         3.337425        -0.652810
 H         3.368274         2.234972        -0.326212
 H         2.394215         0.022489         0.734559
