19
Iteration:   859charge 0 multiplicity 1
 O         4.388404         2.725690        -2.619612
 C         3.036964         2.466262        -2.352823
 C         2.004333         2.642570        -3.490707
 C         2.607744         1.275471        -3.059131
 C         1.780000         0.339500        -2.177063
 C         1.325657         1.181471        -0.996749
 C         2.471587         2.281860        -0.868850
 C         1.420593         0.484912         0.317122
 O         0.445969         0.118698         1.007759
 H         4.507432         3.693019        -2.818479
 H         1.076208         2.893227        -3.161063
 H         2.234319         2.908632        -4.517067
 H         3.351631         0.700263        -3.721648
 H         0.892059         0.030509        -2.762866
 H         2.298338        -0.586192        -1.951490
 H         0.432651         1.674284        -1.141894
 H         1.934718         3.107174        -0.481426
 H         3.241929         1.951071        -0.180239
 H         2.437334         0.050374         0.399188
