19
Iteration:  1330
 O         4.349177         3.020505        -2.550196
 C         3.108297         2.380205        -2.323830
 C         2.044621         2.578877        -3.404491
 C         2.579623         1.216189        -3.188610
 C         1.767218         0.274560        -2.231346
 C         1.267263         1.163862        -1.051043
 C         2.493089         2.200100        -0.937834
 C         1.323488         0.387726         0.259698
 O         0.502395         0.254947         1.132411
 H         4.940651         2.315684        -2.847413
 H         1.116502         3.052684        -2.981043
 H         2.311084         3.167916        -4.285664
 H         2.897411         0.884094        -4.155025
 H         0.987292        -0.265507        -2.743435
 H         2.647686        -0.460624        -1.938699
 H         0.282795         1.642298        -1.326585
 H         2.209611         3.173496        -0.448757
 H         3.214650         1.824891        -0.152503
 H         2.279952        -0.148139         0.431796
