19
Iteration:  3313charge 0 multiplicity 1
 O         4.329458         2.953515        -2.583536
 C         3.044088         2.364694        -2.357722
 C         2.030553         2.479399        -3.479797
 C         2.657129         1.099839        -3.005992
 C         1.798456         0.178155        -2.125183
 C         1.443455         1.223932        -1.076335
 C         2.529881         2.279714        -0.875969
 C         1.346121         0.583890         0.321132
 O         0.362498         0.255136         0.930183
 H         4.100608         3.918278        -2.790195
 H         1.030749         2.415351        -3.094126
 H         2.105091         2.928270        -4.543209
 H         3.283657         0.761224        -3.731770
 H         0.925290        -0.360888        -2.437048
 H         2.415687        -0.705891        -1.869432
 H         0.505545         1.785885        -1.464602
 H         2.076770         3.307689        -0.437360
 H         3.468767         1.829266        -0.403382
 H         2.338465         0.271384         0.755267
