19
Iteration:   271charge 0 multiplicity 1
 O         4.176046         3.031488        -2.479974
 C         2.943056         2.412838        -2.365312
 C         2.091882         2.493882        -3.563885
 C         2.756506         1.184786        -3.121059
 C         1.762278         0.319634        -2.294547
 C         1.491841         1.073868        -0.961647
 C         2.408444         2.240883        -0.912588
 C         1.346072         0.193198         0.304242
 O         0.494882         0.508065         1.093755
 H         4.765518         2.516604        -3.074075
 H         1.085007         2.500989        -3.416396
 H         2.663800         3.002235        -4.253438
 H         3.668691         0.672368        -3.460210
 H         0.797808         0.129703        -2.873589
 H         2.270277        -0.669224        -2.096409
 H         0.482185         1.613002        -1.007347
 H         1.964854         3.177874        -0.516562
 H         3.384297         1.994787        -0.411924
 H         2.093062        -0.578264         0.606501
