19
Iteration:  4548charge 0 multiplicity 1
 O         4.428685         2.836713        -2.659446
 C         3.072736         2.327889        -2.398043
 C         2.001443         2.335578        -3.456763
 C         2.714543         1.095838        -3.032977
 C         1.837018         0.332118        -2.055727
 C         1.296899         1.327807        -0.976162
 C         2.366327         2.427975        -0.886804
 C         1.372877         0.599339         0.315557
 O         0.394563         0.138894         0.900161
 H         4.472457         3.825557        -2.655651
 H         1.007085         2.530503        -3.099792
 H         2.080299         2.764416        -4.489754
 H         3.471418         0.468045        -3.693190
 H         0.998044        -0.127437        -2.565122
 H         2.451546        -0.469793        -1.701487
 H         0.282872         1.778391        -1.126376
 H         2.022431         3.447088        -0.797025
 H         3.045637         2.322777        -0.022400
 H         2.573080         0.487036         0.518205
