19
Iteration:  4100charge 0 multiplicity 1
 O         4.348469         2.943180        -2.620306
 C         3.074635         2.393777        -2.432396
 C         2.159646         2.512022        -3.613790
 C         2.657568         1.100072        -3.107902
 C         1.821776         0.234732        -1.980968
 C         1.376341         1.197199        -0.943833
 C         2.484616         2.428854        -1.034100
 C         1.297805         0.512728         0.448784
 O         0.291880         0.083917         1.037676
 H         4.332792         3.789101        -3.073616
 H         1.130226         2.946511        -3.483154
 H         2.622274         2.903851        -4.518223
 H         3.488508         0.655765        -3.725857
 H         0.892913        -0.183008        -2.381842
 H         2.390644        -0.604914        -1.778256
 H         0.480552         1.754572        -1.197815
 H         1.919362         3.312656        -0.788087
 H         3.279994         2.168839        -0.311849
 H         2.261988         0.266179         0.886909
