19
Iteration:   778
 O         4.275164         2.894305        -2.576239
 C         2.934108         2.451026        -2.331402
 C         1.922186         2.535263        -3.542804
 C         2.714570         1.262741        -3.158747
 C         1.792901         0.336860        -2.280083
 C         1.425476         1.191256        -1.001539
 C         2.679306         2.062631        -0.803312
 C         1.338021         0.396091         0.277880
 O         0.387933         0.309824         1.085439
 H         4.305102         3.817999        -2.315388
 H         0.706614         2.511156        -3.377418
 H         2.387664         3.032029        -4.424726
 H         3.496082         0.728955        -3.689216
 H         0.866010         0.032643        -2.726499
 H         2.398174        -0.543213        -2.103877
 H         0.590217         1.951345        -1.198309
 H         2.629060         2.890910        -0.085725
 H         3.520857         1.502219        -0.457196
 H         2.322678        -0.014429         0.643771
