19
Iteration:  2563charge 0 multiplicity 1
 O         4.292626         2.915466        -2.602949
 C         2.992960         2.411553        -2.343972
 C         2.021357         2.349999        -3.473970
 C         2.676767         1.131165        -3.114911
 C         1.894170         0.242375        -2.271847
 C         1.429063         1.218404        -0.897052
 C         2.581238         2.310469        -0.926199
 C         1.315224         0.412447         0.285654
 O         0.336336         0.431455         1.053716
 H         4.259310         3.852648        -2.290370
 H         1.001095         2.277323        -3.173565
 H         2.341105         2.882584        -4.414088
 H         3.465517         0.812735        -3.783860
 H         0.986804        -0.043046        -2.709315
 H         2.404069        -0.631992        -2.023697
 H         0.510566         1.657372        -1.275790
 H         2.057390         3.120907        -0.441381
 H         3.426136         1.982431        -0.224414
 H         2.070525        -0.367845         0.365097
