19
Iteration:  4468charge 0 multiplicity 1
 O         4.332802         2.893854        -2.557520
 C         3.043166         2.373787        -2.362141
 C         2.092470         2.437676        -3.575730
 C         2.715565         1.102842        -3.040953
 C         1.781005         0.222364        -2.116334
 C         1.394907         1.235747        -0.998888
 C         2.395614         2.343114        -0.988865
 C         1.340631         0.579117         0.339020
 O         0.415207         0.207184         1.035876
 H         4.210104         3.860296        -2.758691
 H         1.085377         2.626306        -3.272563
 H         2.461024         2.742028        -4.484093
 H         3.395707         0.826919        -3.806606
 H         0.878175        -0.073791        -2.623273
 H         2.214839        -0.697054        -1.851952
 H         0.518010         1.837550        -1.255591
 H         2.104326         3.407393        -0.774176
 H         3.242537         2.033690        -0.358493
 H         2.279410         0.282252         0.795110
