19
Iteration:   643
 O         4.307584         3.088860        -2.372095
 C         3.092765         2.303540        -2.403193
 C         1.959766         2.495157        -3.373037
 C         2.501005         1.094863        -3.229247
 C         1.705959         0.271181        -2.206283
 C         1.567068         1.191859        -1.006478
 C         2.574952         2.261101        -0.939435
 C         1.438253         0.323330         0.281092
 O         0.389067         0.343530         0.982272
 H         4.618189         3.262699        -3.267032
 H         0.929698         2.853490        -3.093360
 H         2.255720         2.869653        -4.357753
 H         3.101269         0.681325        -4.004023
 H         0.698045         0.057046        -2.675430
 H         2.187453        -0.689894        -2.061102
 H         0.593612         1.768764        -0.951085
 H         2.213605         3.294702        -0.709421
 H         3.471249         2.149632        -0.268673
 H         2.225397        -0.447768         0.486241
