19
Iteration:  3132charge 0 multiplicity 1
 O         4.301909         2.871712        -2.377565
 C         2.969833         2.412717        -2.367733
 C         2.107168         2.506700        -3.634543
 C         2.668308         1.201670        -3.132018
 C         1.989140         0.182439        -2.277631
 C         1.274588         1.002305        -1.043475
 C         2.243562         2.241868        -0.989531
 C         1.292921         0.265437         0.248878
 O         0.605898         0.679347         1.220572
 H         4.177763         3.806388        -2.437935
 H         1.051222         2.698793        -3.513335
 H         2.549443         2.787692        -4.601128
 H         3.583038         0.945086        -3.683803
 H         1.211980        -0.202995        -2.971532
 H         2.689940        -0.580728        -2.023360
 H         0.289335         1.359442        -1.118837
 H         1.672938         3.003811        -0.537247
 H         3.195983         2.134261        -0.348244
 H         2.027101        -0.511791         0.444856
