19
Iteration:  3135
 O         4.294133         2.869854        -2.376143
 C         2.952578         2.434368        -2.350882
 C         2.118869         2.532448        -3.628846
 C         2.686495         1.194381        -3.152534
 C         1.957397         0.178603        -2.270677
 C         1.287695         0.978791        -1.069742
 C         2.262154         2.221612        -1.011524
 C         1.301709         0.268115         0.282056
 O         0.595738         0.688884         1.226452
 H         4.160237         3.852851        -2.509990
 H         1.065534         2.705072        -3.666962
 H         2.547904         2.794937        -4.577705
 H         3.672214         0.986215        -3.738790
 H         1.132232        -0.195671        -2.881862
 H         2.709270        -0.609856        -2.019584
 H         0.258183         1.290421        -1.163134
 H         1.680834         3.003399        -0.475805
 H         3.197015         2.104512        -0.293616
 H         2.055316        -0.556392         0.493620
