19
Iteration:  4802charge 0 multiplicity 1
 O         4.297899         2.955089        -2.457988
 C         2.913218         2.404201        -2.393758
 C         2.151787         2.440001        -3.685164
 C         2.612651         1.144356        -3.128499
 C         1.937957         0.222689        -2.221951
 C         1.410288         1.055996        -1.018871
 C         2.340779         2.236470        -0.971409
 C         1.301832         0.386393         0.343593
 O         0.445588         0.551460         1.184539
 H         4.493244         3.935606        -2.422935
 H         1.014431         2.630141        -3.770503
 H         2.742099         2.750063        -4.663894
 H         3.575817         0.736507        -3.705382
 H         1.347445        -0.515834        -2.762807
 H         2.656000        -0.393627        -1.665001
 H         0.385530         1.486911        -1.222065
 H         1.990119         3.071959        -0.412028
 H         3.230354         1.895613        -0.311733
 H         2.156445        -0.368002         0.564489
