19
Iteration:  3343charge 0 multiplicity 1
 O         4.345435         2.990634        -2.654237
 C         3.099140         2.344711        -2.455529
 C         2.130692         2.449355        -3.630592
 C         2.644461         1.119991        -3.091034
 C         1.840528         0.381097        -2.098425
 C         1.460253         1.313038        -0.909944
 C         2.512846         2.350611        -0.985315
 C         1.310237         0.363756         0.575405
 O         0.201781         0.104884         1.013911
 H         4.195802         3.907578        -2.839661
 H         1.057891         2.605156        -3.443325
 H         2.427592         2.735789        -4.689523
 H         3.235000         0.686190        -3.862194
 H         0.904583        -0.051382        -2.479139
 H         2.557720        -0.396216        -1.783716
 H         0.518009         1.823197        -1.101212
 H         2.245061         3.315434        -0.699252
 H         3.394873         2.084539        -0.391636
 H         2.242356        -0.109672         1.014165
