19
Iteration:  1968
 O         4.387449         2.800152        -2.577565
 C         3.019212         2.403203        -2.267243
 C         2.058575         2.508726        -3.424674
 C         2.658145         1.200448        -3.070402
 C         1.699124         0.324845        -2.291280
 C         1.305230         1.183103        -1.155887
 C         2.327002         2.330407        -0.907084
 C         1.436854         0.448688         0.213084
 O         0.573165         0.299948         1.084082
 H         4.614845         3.055124        -1.685820
 H         1.017806         2.706697        -3.150334
 H         2.374064         2.787359        -4.455993
 H         3.347537         0.802397        -3.759221
 H         0.816021        -0.040927        -2.750107
 H         2.344643        -0.461330        -1.973393
 H         0.208917         1.567149        -1.175251
 H         1.796056         3.208293        -0.433158
 H         3.089717         1.943312        -0.109257
 H         2.493992         0.043910         0.556948
