19
Iteration:  3167charge 0 multiplicity 1
 O         4.198880         3.035279        -2.274941
 C         2.984089         2.299895        -2.320464
 C         2.139613         2.515844        -3.567423
 C         2.661680         1.115493        -3.239823
 C         1.861335         0.145720        -2.398248
 C         1.339292         0.942515        -1.054842
 C         2.427312         2.142662        -0.973895
 C         1.353104         0.380737         0.329692
 O         0.557331         0.740330         1.171267
 H         3.880732         3.805545        -2.707045
 H         1.111215         2.772270        -3.526885
 H         2.571684         2.727098        -4.546472
 H         3.564966         0.888175        -3.940580
 H         0.932554        -0.214317        -2.877676
 H         2.409377        -0.784787        -2.194747
 H         0.394825         1.299415        -1.312843
 H         1.900045         3.006111        -0.561102
 H         3.224840         1.826646        -0.155805
 H         2.232520        -0.229983         0.531208
