19
Iteration:  1293charge 0 multiplicity 1
 O         4.258022         2.930841        -2.378915
 C         2.994443         2.480657        -2.371141
 C         2.023030         2.533087        -3.547422
 C         2.598339         1.268087        -3.161036
 C         1.699997         0.281407        -2.267170
 C         1.513948         1.104011        -0.968259
 C         2.539385         2.260829        -0.932007
 C         1.468544         0.322157         0.311448
 O         0.419335         0.322285         1.033464
 H         4.685571         2.531796        -3.210982
 H         1.116309         2.955777        -3.205213
 H         2.530552         2.959747        -4.447293
 H         3.140742         0.828293        -4.026909
 H         0.649721         0.260174        -2.785989
 H         2.009292        -0.790224        -2.050437
 H         0.496014         1.432863        -0.882663
 H         2.160232         3.133369        -0.405899
 H         3.477260         1.902138        -0.453276
 H         2.359611        -0.253267         0.565829
