19
Iteration:  2569
 O         4.310197         2.938757        -2.580047
 C         3.051942         2.402862        -2.385081
 C         1.991743         2.370128        -3.434196
 C         2.682725         1.102247        -3.089963
 C         1.853393         0.191229        -2.233416
 C         1.449268         1.281171        -0.911754
 C         2.544100         2.341837        -0.905313
 C         1.274776         0.386409         0.255511
 O         0.376504         0.431791         1.003607
 H         4.275519         3.861605        -2.324026
 H         0.943011         2.314453        -3.071855
 H         2.147754         2.769432        -4.396082
 H         3.299675         0.635940        -3.914443
 H         0.922204        -0.304918        -2.835344
 H         2.577474        -0.702641        -1.965163
 H         0.492314         1.769316        -1.202545
 H         2.183492         3.280846        -0.381095
 H         3.316211         1.886632        -0.265629
 H         2.197062        -0.336278         0.362853
