19
Iteration:  1730
 O         4.340406         3.006679        -2.503426
 C         3.005122         2.381901        -2.399443
 C         2.018246         2.550830        -3.455610
 C         2.579282         1.130175        -3.112916
 C         1.649507         0.417940        -2.189651
 C         1.420558         1.269806        -0.873501
 C         2.702474         2.291425        -0.900073
 C         1.379762         0.380340         0.276933
 O         0.388806         0.116190         0.905471
 H         4.655197         2.399359        -3.180850
 H         0.927929         2.682028        -3.116099
 H         2.178517         2.913337        -4.466980
 H         3.027240         0.545731        -3.920638
 H         0.665976         0.159806        -2.609161
 H         2.235101        -0.470905        -1.813716
 H         0.497448         1.816973        -1.009917
 H         2.714056         3.227356        -0.350668
 H         3.584421         1.707149        -0.404849
 H         2.302195        -0.004275         0.625836
