19
Iteration:   839
 O         4.430853         2.860596        -2.622254
 C         3.073205         2.371021        -2.358653
 C         2.036758         2.634089        -3.310333
 C         2.585231         1.141473        -3.148296
 C         1.741188         0.290218        -2.268064
 C         1.395297         1.201828        -0.967187
 C         2.465899         2.409943        -1.018308
 C         1.358248         0.328787         0.321923
 O         0.388509         0.153323         1.106590
 H         4.563701         3.711485        -2.998089
 H         1.082872         2.850466        -2.914002
 H         2.336750         3.171262        -4.203700
 H         3.335242         0.920574        -3.999441
 H         0.793290        -0.110004        -2.827609
 H         2.379642        -0.570550        -1.946806
 H         0.384137         1.613192        -1.212331
 H         2.060712         3.476836        -0.824325
 H         3.187449         2.143450        -0.139405
 H         2.414464         0.036166         0.640378
