19
Iteration:  4553
 O         4.406606         2.823391        -2.660677
 C         3.033049         2.383360        -2.387889
 C         2.021798         2.366562        -3.469299
 C         2.771732         1.060508        -3.035377
 C         1.806668         0.346838        -2.046913
 C         1.305444         1.299982        -0.996377
 C         2.390212         2.432416        -0.872982
 C         1.372515         0.606829         0.323982
 O         0.408920         0.147401         0.882661
 H         4.341957         3.792003        -2.637601
 H         0.997788         2.343506        -2.992851
 H         2.110198         2.763399        -4.474896
 H         3.315074         0.501494        -3.679515
 H         0.943396        -0.080356        -2.630171
 H         2.411683        -0.474160        -1.483587
 H         0.262069         1.568273        -1.035452
 H         2.159085         3.539712        -0.982655
 H         3.182581         2.168163        -0.147175
 H         2.332042         0.385769         0.656379
