19
Iteration:     1charge 0 multiplicity 1
 O         4.284788         2.954208        -2.579673
 C         3.021753         2.394647        -2.387663
 C         2.011780         2.427098        -3.508212
 C         2.664366         1.117310        -3.093875
 C         1.907862         0.224210        -2.125992
 C         1.436645         1.175138        -0.985407
 C         2.493865         2.309648        -0.960885
 C         1.347436         0.456681         0.339753
 O         0.352394         0.337902         1.005659
 H         4.193832         3.913161        -2.562730
 H         0.961568         2.603059        -3.297004
 H         2.363058         2.849401        -4.443211
 H         3.368403         0.669774        -3.785714
 H         1.062086        -0.304914        -2.575672
 H         2.591094        -0.537153        -1.726227
 H         0.444022         1.575008        -1.204844
 H         2.073621         3.248210        -0.583741
 H         3.337331         2.040656        -0.311564
 H         2.319616         0.018484         0.674167
