19
Iteration:   518
 O         4.361337         2.640924        -2.595623
 C         2.986339         2.437874        -2.386130
 C         2.041216         2.573728        -3.514223
 C         2.560092         1.187593        -3.050225
 C         1.773546         0.369317        -2.022305
 C         1.333814         1.400470        -0.993479
 C         2.431759         2.509292        -0.985300
 C         1.443128         0.483975         0.376644
 O         0.497966        -0.045714         0.864368
 H         4.513321         3.527182        -2.171147
 H         0.999398         2.822115        -3.337915
 H         2.479429         2.835409        -4.466086
 H         3.042233         0.690908        -3.889827
 H         1.016570        -0.346761        -2.380164
 H         2.677313        -0.219350        -1.592901
 H         0.323659         1.754416        -1.110658
 H         2.163654         3.475655        -0.557401
 H         3.208604         2.145012        -0.251902
 H         2.504034         0.235000         0.682610
