19
Iteration:  3675
 O         4.321338         3.060647        -2.482126
 C         3.008518         2.484000        -2.495269
 C         2.110695         2.540431        -3.621624
 C         2.583154         1.034650        -3.182642
 C         1.917495         0.158595        -2.178043
 C         1.423423         1.029651        -0.977980
 C         2.539361         2.239916        -0.911487
 C         1.278489         0.317098         0.384862
 O         0.314298         0.484127         1.172746
 H         4.239186         3.939288        -2.987469
 H         1.125209         2.957957        -3.607474
 H         2.666638         2.734953        -4.516200
 H         3.303190         0.505521        -3.768145
 H         1.039993        -0.158095        -2.713421
 H         2.505975        -0.729046        -1.911442
 H         0.472618         1.531225        -1.384532
 H         2.023145         3.102372        -0.407716
 H         3.365947         1.887811        -0.351389
 H         2.266240        -0.127435         0.727626
