19
Iteration:  2215
 O         4.289526         3.035087        -2.557155
 C         2.934924         2.494091        -2.457252
 C         1.941120         2.374853        -3.618609
 C         2.602562         1.159287        -3.011145
 C         1.856890         0.253219        -2.075952
 C         1.545244         1.215620        -0.821311
 C         2.737461         2.235185        -0.888960
 C         1.337169         0.416005         0.364553
 O         0.196369         0.285295         0.883019
 H         4.647678         2.925086        -3.452145
 H         0.977554         2.825223        -3.541866
 H         2.620418         2.799818        -4.406674
 H         3.372143         0.810018        -3.702438
 H         1.056531        -0.300300        -2.672644
 H         2.561076        -0.501311        -1.833701
 H         0.593143         1.615003        -1.106539
 H         2.405377         3.153594        -0.309797
 H         3.791425         1.775587        -0.580400
 H         2.236757         0.005492         0.833604
