19
Iteration:  1333charge 0 multiplicity 1
 O         4.356636         3.017807        -2.555023
 C         3.091416         2.403661        -2.339412
 C         2.041831         2.591608        -3.381405
 C         2.570534         1.182926        -3.153815
 C         1.796460         0.279269        -2.236094
 C         1.271204         1.156760        -1.047212
 C         2.478161         2.185772        -0.946765
 C         1.341420         0.411646         0.227807
 O         0.493875         0.249386         1.141910
 H         4.942903         2.289235        -2.762061
 H         1.169126         3.002617        -2.988256
 H         2.288547         3.184020        -4.283547
 H         2.879515         0.860740        -4.183117
 H         0.954499        -0.242744        -2.689453
 H         2.571972        -0.385665        -1.944477
 H         0.379491         1.767827        -1.381304
 H         2.184631         3.131077        -0.448120
 H         3.180352         1.817783        -0.225422
 H         2.264954        -0.227663         0.377588
