19
Iteration:  2653
 O         4.382371         2.850118        -2.643239
 C         3.051151         2.431200        -2.449284
 C         1.994628         2.480691        -3.546301
 C         2.616008         1.147472        -3.108055
 C         1.826255         0.249868        -2.100787
 C         1.439069         1.197712        -0.931763
 C         2.546300         2.370959        -0.921475
 C         1.359478         0.537259         0.508561
 O         0.269006         0.160667         0.910181
 H         4.449951         3.804472        -2.363070
 H         0.927136         2.878276        -3.297260
 H         2.424284         2.804856        -4.505749
 H         3.395758         0.682943        -3.758231
 H         1.055773        -0.182152        -2.622197
 H         2.452263        -0.638849        -1.983906
 H         0.434738         1.587679        -1.160951
 H         2.134270         3.326183        -0.447620
 H         3.521741         2.075763        -0.352281
 H         2.298934         0.502990         1.135701
