19
Iteration:   311
 O         4.214991         3.224280        -2.579798
 C         3.081438         2.346016        -2.373063
 C         2.032294         2.486173        -3.435888
 C         2.655972         1.063484        -3.133780
 C         1.806141         0.273912        -2.215064
 C         1.433141         1.174200        -1.031601
 C         2.614838         2.113727        -0.995885
 C         1.281252         0.374911         0.299013
 O         0.359984         0.368718         1.096237
 H         4.971127         2.895703        -2.053012
 H         0.913619         2.628195        -3.025815
 H         2.279345         2.888808        -4.509835
 H         3.350788         0.700488        -3.872254
 H         0.941073        -0.177651        -2.701748
 H         2.362574        -0.499147        -1.724015
 H         0.496862         1.680812        -1.193849
 H         2.364589         2.965597        -0.311339
 H         3.434577         1.685827        -0.428916
 H         2.332882        -0.224217         0.522545
