19
Iteration:  3338charge 0 multiplicity 1
 O         4.334181         2.979111        -2.638536
 C         3.134694         2.388950        -2.449605
 C         2.083743         2.416929        -3.566998
 C         2.653135         1.139242        -3.115474
 C         1.861266         0.374648        -2.121723
 C         1.438438         1.340674        -0.912365
 C         2.537835         2.313603        -1.008529
 C         1.296880         0.374459         0.539705
 O         0.228158         0.126684         1.015138
 H         4.157240         3.929692        -2.866326
 H         1.034978         2.704951        -3.472321
 H         2.479602         2.626640        -4.514399
 H         3.331626         0.542892        -3.856063
 H         0.952975        -0.141571        -2.504358
 H         2.443280        -0.540558        -1.849149
 H         0.411286         1.750548        -1.044419
 H         2.082440         3.358798        -0.725508
 H         3.319471         1.915777        -0.324173
 H         2.232586        -0.018847         1.083888
