19
Iteration:   122charge 0 multiplicity 1
 O         4.222833         3.066966        -2.391739
 C         3.006401         2.358073        -2.325783
 C         2.145118         2.299033        -3.630345
 C         2.751353         1.095453        -2.982719
 C         1.688785         0.400665        -2.218341
 C         1.199210         1.207786        -1.097406
 C         2.270887         2.316615        -1.018924
 C         1.348666         0.383306         0.109002
 O         0.780621         0.356529         1.172452
 H         4.857359         2.882852        -1.672174
 H         1.096732         2.527945        -3.546021
 H         2.759326         2.521776        -4.517854
 H         3.494807         0.459219        -3.565198
 H         0.863282         0.144012        -2.840721
 H         2.067500        -0.554109        -1.926357
 H         0.209324         1.579953        -1.254845
 H         1.996747         3.228079        -0.539498
 H         2.988832         1.933289        -0.303717
 H         2.206478        -0.210901        -0.011181
