19
Iteration:  4305
 O         4.276410         2.987751        -2.636852
 C         2.987615         2.425088        -2.374020
 C         2.055498         2.502399        -3.616566
 C         2.706861         1.141910        -3.152915
 C         1.977280         0.203963        -2.130162
 C         1.449797         1.066622        -0.962166
 C         2.485239         2.208815        -0.958561
 C         1.224730         0.303844         0.369331
 O         0.318571         0.512469         1.141168
 H         4.438887         3.898250        -2.417451
 H         1.068884         2.727471        -3.545272
 H         2.674977         3.054240        -4.341115
 H         3.492253         0.877044        -3.725330
 H         1.181360        -0.349578        -2.614948
 H         2.566278        -0.624151        -1.665680
 H         0.486722         1.590020        -1.192798
 H         2.090267         3.116186        -0.501379
 H         3.323822         1.892350        -0.371787
 H         2.021552        -0.405619         0.540587
