19
Iteration:  2540charge 0 multiplicity 1
 O         4.263552         2.945711        -2.625695
 C         2.994764         2.412760        -2.424581
 C         2.108484         2.588233        -3.648477
 C         2.747147         1.148344        -3.080634
 C         1.818218         0.222610        -2.235795
 C         1.446440         1.085560        -0.918576
 C         2.506088         2.221671        -0.924851
 C         1.316704         0.295246         0.409445
 O         0.314186         0.480636         1.139479
 H         4.168016         3.896894        -2.445836
 H         1.063483         2.539671        -3.598383
 H         2.686649         3.037170        -4.472320
 H         3.421660         0.628862        -3.806906
 H         1.018860        -0.253860        -2.777422
 H         2.444964        -0.555022        -1.943035
 H         0.520893         1.551549        -1.265113
 H         2.117041         2.999161        -0.290318
 H         3.302828         1.648399        -0.304562
 H         2.268693         0.004840         0.899474
