19
Iteration:  3469
 O         4.326299         2.793509        -2.575581
 C         2.990628         2.427375        -2.399648
 C         2.111307         2.470034        -3.737749
 C         2.610232         1.143382        -3.119901
 C         1.834550         0.340830        -2.050399
 C         1.504851         1.300535        -0.883595
 C         2.490420         2.465650        -0.962390
 C         1.294287         0.484463         0.396990
 O         0.325623         0.010087         0.995212
 H         4.373460         3.750011        -2.633578
 H         1.082772         2.651977        -3.696859
 H         2.577915         2.727485        -4.637565
 H         3.546398         0.750914        -3.651796
 H         0.969265        -0.055613        -2.577286
 H         2.356614        -0.534510        -1.596299
 H         0.585538         1.929813        -0.783073
 H         1.976937         3.428027        -0.516170
 H         3.343006         2.256901        -0.229615
 H         2.233956         0.638861         1.016628
