19
Iteration:  3263
 O         4.379006         2.936931        -2.559258
 C         3.016942         2.440172        -2.460850
 C         1.983870         2.498356        -3.546696
 C         2.589676         1.178440        -3.165442
 C         2.025693         0.226881        -2.171352
 C         1.488293         1.065187        -0.931728
 C         2.490583         2.262990        -0.993893
 C         1.206229         0.347970         0.348269
 O         0.298558         0.418615         1.167617
 H         4.493907         3.821000        -2.208510
 H         1.050803         2.948264        -3.245345
 H         2.323871         2.759478        -4.527056
 H         3.508948         0.970314        -3.874582
 H         1.162890        -0.327079        -2.652737
 H         2.663638        -0.634190        -1.960214
 H         0.543215         1.519435        -1.176436
 H         1.963733         3.134191        -0.811377
 H         3.377558         2.289007        -0.395822
 H         1.967192        -0.401953         0.516847
