19
Iteration:  4207charge 0 multiplicity 1
 O         4.295362         2.897604        -2.468109
 C         3.040503         2.354606        -2.420480
 C         2.111300         2.519447        -3.583564
 C         2.689071         1.067637        -3.068817
 C         1.880327         0.230413        -2.183628
 C         1.326685         1.194205        -1.016465
 C         2.396086         2.416558        -1.121432
 C         1.347705         0.394109         0.411010
 O         0.396767         0.297013         1.138544
 H         4.168722         3.683043        -2.980381
 H         1.231988         2.986320        -3.259133
 H         2.545505         2.799059        -4.501431
 H         3.444307         0.780991        -3.784309
 H         0.952457        -0.130398        -2.632426
 H         2.639050        -0.565784        -1.868306
 H         0.283887         1.607900        -1.047703
 H         2.081955         3.425668        -0.808717
 H         3.199120         2.135068        -0.352496
 H         2.392072         0.040506         0.649373
