19
Iteration:  1808
 O         4.318711         2.808539        -2.585028
 C         2.983019         2.432117        -2.394468
 C         1.957659         2.681118        -3.490083
 C         2.546156         1.272007        -3.213574
 C         1.906535         0.301926        -2.304367
 C         1.511777         1.128813        -0.976246
 C         2.634575         2.180490        -0.855772
 C         1.319413         0.304117         0.398142
 O         0.291516         0.314249         1.083025
 H         4.385908         3.760464        -2.535796
 H         0.947319         3.082487        -3.126268
 H         2.475128         3.198225        -4.322041
 H         3.250551         1.008925        -3.922660
 H         1.032969        -0.239875        -2.767307
 H         2.622539        -0.482474        -1.933751
 H         0.583565         1.626177        -1.198310
 H         2.312121         3.001308        -0.216388
 H         3.494884         1.535842        -0.379086
 H         2.330309        -0.061528         0.801455
