19
Iteration:  1381
 O         4.294060         2.939663        -2.561448
 C         3.004798         2.377114        -2.342638
 C         1.999190         2.649350        -3.418416
 C         2.529385         1.206063        -3.263465
 C         1.723830         0.329262        -2.237774
 C         1.578715         1.106377        -0.955476
 C         2.574669         2.194763        -0.924101
 C         1.374163         0.287395         0.333576
 O         0.432000         0.355800         1.013638
 H         4.717986         3.080284        -1.659437
 H         0.851694         2.842846        -3.471036
 H         2.358163         3.120574        -4.327855
 H         3.275530         0.781727        -3.932244
 H         0.717375         0.056619        -2.668091
 H         2.330792        -0.506487        -2.132797
 H         0.606495         1.548688        -1.083191
 H         2.077265         3.012529        -0.430209
 H         3.379271         1.907258        -0.223613
 H         2.168442        -0.364882         0.720936
