19
Iteration:  4922charge 0 multiplicity 1
 O         4.273304         2.961045        -2.506257
 C         3.011074         2.409181        -2.419039
 C         2.212223         2.368429        -3.698744
 C         2.724774         1.174246        -3.031796
 C         1.833105         0.226210        -2.164187
 C         1.308044         1.198539        -1.011748
 C         2.410672         2.364362        -1.104561
 C         1.295966         0.366872         0.367545
 O         0.439724         0.344809         1.209478
 H         4.039927         3.885671        -2.407985
 H         1.145757         2.740317        -3.605744
 H         2.755787         2.686769        -4.630782
 H         3.405929         0.454198        -3.539405
 H         0.999995        -0.080095        -2.653510
 H         2.401217        -0.557504        -1.620334
 H         0.279496         1.522739        -1.060054
 H         2.053718         3.311552        -0.792033
 H         3.253121         2.169999        -0.416928
 H         2.222550        -0.313159         0.564010
