19
Iteration:   848charge 0 multiplicity 1
 O         4.431155         2.776236        -2.634620
 C         3.089130         2.407984        -2.370580
 C         1.988919         2.698470        -3.371865
 C         2.666753         1.190013        -3.066320
 C         1.767251         0.268067        -2.261510
 C         1.377454         1.228193        -1.014686
 C         2.419327         2.389653        -0.948433
 C         1.334203         0.376150         0.334682
 O         0.435329         0.130483         1.076987
 H         4.314884         3.655238        -2.977934
 H         1.023198         2.775979        -3.083322
 H         2.227704         3.166299        -4.328559
 H         3.231287         0.809253        -3.987082
 H         0.822863        -0.007132        -2.773162
 H         2.226779        -0.650040        -1.900106
 H         0.390270         1.522909        -1.103951
 H         2.080194         3.332992        -0.577465
 H         3.281864         2.126146        -0.323028
 H         2.343627         0.053993         0.697223
