19
Iteration:  2343charge 0 multiplicity 1
 O         4.436902         2.918475        -2.494417
 C         3.075560         2.355636        -2.418981
 C         2.076701         2.515387        -3.640964
 C         2.684676         1.121254        -3.034098
 C         1.762050         0.248891        -2.177583
 C         1.372611         1.211626        -0.990328
 C         2.320208         2.350182        -1.041268
 C         1.337335         0.393091         0.312222
 O         0.463200         0.298728         1.135233
 H         4.084302         3.835452        -2.602724
 H         1.165288         2.967770        -3.264753
 H         2.319151         2.857860        -4.622483
 H         3.332843         0.475477        -3.612823
 H         0.861627        -0.091373        -2.661432
 H         2.343161        -0.685076        -1.678527
 H         0.293794         1.493313        -0.998009
 H         1.768665         3.176776        -0.712931
 H         3.090172         2.242445        -0.308016
 H         2.315634        -0.096286         0.437162
