19
Iteration:  1887
 O         4.227994         3.004821        -2.515826
 C         3.023382         2.452923        -2.364598
 C         2.131959         2.557714        -3.520658
 C         2.614921         1.221014        -3.144705
 C         1.760557         0.355459        -2.308525
 C         1.373937         1.094448        -0.977996
 C         2.562260         2.151546        -0.908205
 C         1.339626         0.320656         0.300234
 O         0.415300         0.370531         1.149340
 H         4.831765         2.577409        -3.116618
 H         1.114993         2.832670        -3.359321
 H         2.620991         2.951896        -4.423113
 H         3.327310         0.659608        -3.830636
 H         0.815901        -0.048805        -2.831319
 H         2.324435        -0.596789        -2.109297
 H         0.391891         1.520056        -0.997831
 H         2.281298         2.981623        -0.181238
 H         3.478299         1.616884        -0.310514
 H         2.349014        -0.324418         0.458278
