19
Iteration:  3719
 O         4.222411         2.953654        -2.427797
 C         3.011691         2.348492        -2.293569
 C         2.023303         2.389128        -3.390015
 C         2.785512         1.075976        -3.122326
 C         1.857714         0.211359        -2.215563
 C         1.367120         1.166272        -1.085126
 C         2.406352         2.295208        -0.855131
 C         1.365132         0.418426         0.141656
 O         0.510290         0.564201         0.996243
 H         4.255522         3.392384        -3.335768
 H         0.961450         2.291957        -3.182677
 H         2.231246         2.817287        -4.319002
 H         3.253208         0.673396        -3.947429
 H         0.966737        -0.224158        -2.633283
 H         2.357659        -0.556585        -1.629124
 H         0.320585         1.451805        -1.249405
 H         2.061290         3.307269        -0.527787
 H         3.316361         1.889099        -0.407672
 H         2.271336        -0.168432         0.319612
