19
Iteration:  2097charge 0 multiplicity 1
 O         4.352999         2.894887        -2.576747
 C         3.094830         2.388052        -2.422374
 C         2.067464         2.611852        -3.478821
 C         2.562650         1.180863        -3.076986
 C         1.786607         0.232113        -2.075408
 C         1.396448         1.219352        -0.955495
 C         2.548383         2.340937        -1.032250
 C         1.391407         0.427384         0.345072
 O         0.335767         0.179786         0.966013
 H         4.279602         3.870860        -2.391289
 H         1.060461         2.870225        -3.477237
 H         2.577735         2.596464        -4.465221
 H         3.030582         0.636042        -3.841969
 H         0.873450        -0.375702        -2.351718
 H         2.387814        -0.645359        -1.673914
 H         0.417235         1.692470        -0.917453
 H         2.012155         3.246151        -0.659132
 H         3.325647         2.109481        -0.366818
 H         2.359131         0.001475         0.601049
