19
Iteration:  1809
 O         4.323126         2.812563        -2.587551
 C         2.978401         2.432312        -2.396399
 C         1.965599         2.671983        -3.482753
 C         2.537746         1.279757        -3.216158
 C         1.899894         0.302909        -2.297571
 C         1.508774         1.122316        -0.979854
 C         2.636440         2.177463        -0.856915
 C         1.320487         0.308732         0.393395
 O         0.288130         0.315351         1.084794
 H         4.395014         3.772137        -2.487430
 H         0.980203         3.048111        -3.120911
 H         2.479731         3.202691        -4.328303
 H         3.254077         1.014512        -3.918241
 H         1.042755        -0.271870        -2.766357
 H         2.620808        -0.467558        -1.944215
 H         0.596876         1.626073        -1.193123
 H         2.291533         3.010199        -0.230664
 H         3.515243         1.563501        -0.394092
 H         2.383234        -0.088645         0.793841
