19
Iteration:   328
 O         4.243688         3.076162        -2.538463
 C         3.077320         2.353179        -2.445012
 C         1.915436         2.457402        -3.374583
 C         2.609018         1.149091        -3.201598
 C         1.930940         0.183301        -2.107089
 C         1.401219         1.240212        -0.977943
 C         2.651092         2.178821        -0.971761
 C         1.297149         0.466254         0.267803
 O         0.354426         0.330388         0.989566
 H         4.542156         3.166648        -1.636316
 H         0.923646         2.779086        -3.269285
 H         2.121637         3.152418        -4.162781
 H         3.046811         0.676268        -4.116490
 H         1.134526        -0.442902        -2.566926
 H         2.728754        -0.592785        -1.781303
 H         0.413672         1.734785        -1.178848
 H         2.635823         3.123177        -0.427855
 H         3.529404         1.608957        -0.450632
 H         2.276605        -0.035276         0.422647
