19
Iteration:  1847charge 0 multiplicity 1
 O         4.316361         3.006810        -2.577774
 C         3.068307         2.340537        -2.357859
 C         1.972870         2.521818        -3.273493
 C         2.552348         1.152498        -3.135241
 C         1.788957         0.248349        -2.208169
 C         1.415923         1.164318        -1.059403
 C         2.579565         2.227153        -0.910846
 C         1.340711         0.356457         0.179803
 O         0.437948         0.388079         0.991374
 H         4.648142         2.847733        -1.636922
 H         1.226896         3.033968        -2.675494
 H         2.062849         2.881749        -4.223883
 H         3.049267         0.902524        -4.146240
 H         0.905021        -0.029093        -2.733512
 H         2.392601        -0.583371        -1.912455
 H         0.439543         1.746054        -1.215618
 H         2.356441         3.226242        -0.479905
 H         3.467395         1.997157        -0.493958
 H         2.273740        -0.463351         0.409589
