19
Iteration:  2769
 O         4.430967         2.839384        -2.512139
 C         3.114170         2.309100        -2.395773
 C         2.079829         2.482432        -3.554766
 C         2.572743         1.153724        -3.083012
 C         1.694854         0.292330        -2.093409
 C         1.355674         1.334769        -0.942416
 C         2.431321         2.405619        -1.055919
 C         1.331352         0.694080         0.418473
 O         0.471429        -0.045024         0.921554
 H         4.442627         3.805533        -2.587085
 H         1.035317         2.751285        -3.399505
 H         2.474152         2.654715        -4.520128
 H         3.081966         0.614908        -3.839105
 H         0.697173        -0.252597        -2.480034
 H         2.245289        -0.655864        -1.718781
 H         0.374688         1.829457        -1.050803
 H         2.280079         3.393133        -0.665853
 H         3.285507         2.033956        -0.524418
 H         2.207671         1.041861         1.048000
