19
Iteration:   659
 O         4.314429         3.101372        -2.448292
 C         3.120460         2.351400        -2.365845
 C         2.021029         2.630010        -3.377166
 C         2.519021         1.130262        -3.199788
 C         1.738847         0.155313        -2.273288
 C         1.410965         1.074920        -0.951369
 C         2.607004         2.189059        -1.004625
 C         1.391478         0.377714         0.314853
 O         0.386754         0.374623         1.014063
 H         4.625784         3.232147        -3.383970
 H         1.021264         2.719304        -2.816251
 H         2.241577         3.341822        -4.219298
 H         2.930635         0.650240        -4.127776
 H         0.808468        -0.257116        -2.586213
 H         2.450538        -0.630917        -1.954672
 H         0.441157         1.435654        -1.216021
 H         2.268006         3.103079        -0.514789
 H         3.440438         2.012316        -0.277882
 H         2.363403        -0.113524         0.669520
