19
Iteration:  4063
 O         4.352183         2.815488        -2.603135
 C         2.956724         2.464728        -2.430356
 C         1.995309         2.438160        -3.621205
 C         2.676707         1.134099        -3.031768
 C         1.914259         0.280918        -2.006088
 C         1.461066         1.253056        -0.910681
 C         2.506944         2.384414        -0.958056
 C         1.373957         0.539494         0.403487
 O         0.279036         0.159909         0.860031
 H         4.320217         3.815818        -2.607784
 H         0.985023         2.518502        -3.363285
 H         2.342158         2.909636        -4.563605
 H         3.432229         0.700926        -3.680463
 H         0.928640        -0.129257        -2.173659
 H         2.515397        -0.498902        -1.482067
 H         0.407298         1.431208        -1.255802
 H         2.084613         3.337517        -0.489118
 H         3.437055         2.219198        -0.285344
 H         2.341647         0.149429         0.771311
