19
Iteration:  4454
 O         4.347949         2.947196        -2.598986
 C         3.104684         2.322781        -2.354819
 C         2.061230         2.391460        -3.413727
 C         2.715406         1.053277        -3.070779
 C         1.787179         0.303385        -2.152631
 C         1.263070         1.258409        -1.031059
 C         2.455157         2.337948        -1.000197
 C         1.397822         0.525641         0.327722
 O         0.405143         0.270564         0.994572
 H         4.175928         3.886360        -2.639397
 H         0.998316         2.448364        -3.346568
 H         2.448045         2.963995        -4.328178
 H         3.349785         0.422687        -3.560598
 H         0.949622        -0.166127        -2.715554
 H         2.342010        -0.479350        -1.618163
 H         0.234065         1.420887        -1.088457
 H         1.947456         3.285968        -0.683654
 H         3.131633         2.130765        -0.141359
 H         2.479460         0.291692         0.468723
