19
Iteration:  4588charge 0 multiplicity 1
 O         4.333920         2.955673        -2.589995
 C         3.035206         2.394861        -2.400100
 C         2.107467         2.376364        -3.723500
 C         2.559599         1.058027        -3.059389
 C         1.808318         0.294558        -2.035712
 C         1.463599         1.265396        -0.872337
 C         2.580566         2.380275        -0.912415
 C         1.336448         0.565826         0.410030
 O         0.312465         0.145637         0.918372
 H         4.206218         3.905001        -2.707398
 H         1.049707         2.709367        -3.739530
 H         2.562638         2.610309        -4.656295
 H         3.248391         0.485847        -3.828818
 H         0.878393        -0.244340        -2.311813
 H         2.363550        -0.591954        -1.567342
 H         0.440950         1.561331        -1.169306
 H         2.028821         3.417649        -0.491937
 H         3.448570         2.245288        -0.212150
 H         2.251994         0.258291         0.881958
