19
Iteration:  2479
 O         4.361959         2.883580        -2.364676
 C         3.011661         2.360730        -2.332170
 C         1.890931         2.361301        -3.426907
 C         2.665619         1.102995        -3.059788
 C         1.845754         0.263599        -2.227275
 C         1.396381         1.235563        -1.147822
 C         2.390012         2.290672        -0.999248
 C         1.417664         0.407699         0.212883
 O         0.505764         0.507030         1.029999
 H         4.518195         3.358509        -3.193102
 H         0.812735         2.509190        -3.262728
 H         2.309182         3.058564        -4.239703
 H         3.378831         0.797275        -3.787866
 H         0.918006        -0.227247        -2.616108
 H         2.538472        -0.584899        -1.755382
 H         0.338622         1.485211        -1.275428
 H         1.899208         3.191405        -0.547459
 H         3.156850         2.016503        -0.306210
 H         2.350980        -0.113174         0.443283
