19
Iteration:   634charge 0 multiplicity 1
 O         4.274732         3.009746        -2.377450
 C         3.045668         2.390932        -2.354388
 C         1.958434         2.445497        -3.459753
 C         2.550833         1.112044        -3.137913
 C         1.721267         0.356775        -2.227018
 C         1.495252         1.194707        -0.919323
 C         2.671379         2.265478        -0.970030
 C         1.377716         0.284822         0.244185
 O         0.445396         0.324024         0.955948
 H         4.550080         3.274022        -3.264973
 H         0.869214         2.830717        -3.068218
 H         2.309284         2.775224        -4.496853
 H         3.053564         0.658051        -3.983066
 H         0.705585         0.203804        -2.585699
 H         2.128100        -0.567373        -1.924276
 H         0.514725         1.720984        -1.130508
 H         2.176929         3.228286        -0.631840
 H         3.530021         2.287924        -0.380898
 H         2.313095        -0.348096         0.443880
