19
Iteration:  2993charge 0 multiplicity 1
 O         4.293973         3.032208        -2.393640
 C         3.062017         2.405240        -2.420374
 C         1.887954         2.437461        -3.354729
 C         2.692591         1.057114        -3.079283
 C         1.954294         0.150666        -2.199684
 C         1.394921         1.121440        -1.047809
 C         2.508817         2.205618        -1.007635
 C         1.269688         0.420439         0.186618
 O         0.421046         0.543982         1.000724
 H         4.461703         3.547694        -3.206682
 H         0.915455         2.576538        -2.971476
 H         2.253634         2.994429        -4.215188
 H         3.261410         0.754976        -3.943274
 H         1.074500        -0.432552        -2.360770
 H         2.749297        -0.483610        -1.696824
 H         0.430565         1.518596        -1.317920
 H         2.180010         3.103093        -0.546663
 H         3.309712         1.897415        -0.407514
 H         2.194372        -0.254890         0.365693
