19
Iteration:  3191charge 0 multiplicity 1
 O         4.285470         3.077200        -2.284256
 C         2.999598         2.370396        -2.342489
 C         2.009842         2.363787        -3.475673
 C         2.722327         1.030543        -3.111037
 C         1.819465         0.153455        -2.339406
 C         1.314022         1.088241        -1.067734
 C         2.475022         2.150578        -1.030157
 C         1.360303         0.393885         0.177421
 O         0.557315         0.702545         1.094187
 H         3.999520         3.954062        -2.614848
 H         0.983692         2.446518        -3.012480
 H         2.102904         3.104340        -4.244904
 H         3.396040         0.606692        -3.882778
 H         1.052241        -0.319418        -2.959097
 H         2.395670        -0.740445        -1.950061
 H         0.356033         1.603808        -1.296473
 H         1.864693         2.887818        -0.355032
 H         3.299645         1.694512        -0.336339
 H         2.182732        -0.302919         0.303352
