19
Iteration:  4403
 O         4.294385         2.903271        -2.509985
 C         3.008027         2.458393        -2.423230
 C         2.050898         2.430254        -3.670606
 C         2.708177         1.170212        -3.161761
 C         1.878490         0.244474        -2.191687
 C         1.431166         1.163716        -0.921204
 C         2.492269         2.283004        -0.947887
 C         1.322342         0.338845         0.410732
 O         0.315723         0.425963         1.076851
 H         4.237030         3.873949        -2.521027
 H         1.095395         2.623489        -3.332273
 H         2.414861         2.818815        -4.617429
 H         3.480692         0.849756        -3.800985
 H         1.070117        -0.396373        -2.514863
 H         2.634182        -0.463762        -1.804123
 H         0.355091         1.477946        -1.155886
 H         2.089995         3.129276        -0.332676
 H         3.413752         1.926201        -0.485482
 H         2.261980        -0.164226         0.696924
