19
Iteration:  1912charge 0 multiplicity 1
 O         4.396022         2.989128        -2.364755
 C         2.998691         2.445590        -2.443233
 C         2.064971         2.601922        -3.650173
 C         2.608968         1.189790        -3.245167
 C         1.717876         0.243097        -2.267357
 C         1.370109         1.092337        -0.955818
 C         2.530669         2.216959        -0.961231
 C         1.317849         0.321936         0.343936
 O         0.435967         0.327125         1.218650
 H         4.662379         3.292713        -3.263911
 H         1.086494         3.050359        -3.531918
 H         2.612438         3.061432        -4.390660
 H         3.361860         0.738335        -3.954310
 H         0.742449        -0.070469        -2.630374
 H         2.194525        -0.684558        -2.008778
 H         0.340430         1.599485        -1.065925
 H         2.164188         3.112513        -0.365686
 H         3.458958         1.888690        -0.334621
 H         2.270510        -0.378276         0.380101
