19
Iteration:  1250
 O         4.300464         2.958776        -2.457355
 C         3.089489         2.283511        -2.393134
 C         2.059135         2.604842        -3.364006
 C         2.567090         1.110130        -3.198275
 C         1.779114         0.335320        -2.208256
 C         1.309065         1.311525        -1.048875
 C         2.553461         2.310655        -0.916233
 C         1.305878         0.329675         0.248318
 O         0.494372         0.203391         1.106954
 H         4.381087         3.493829        -3.281270
 H         1.119359         2.958250        -3.095907
 H         2.478410         2.796205        -4.367341
 H         3.165985         0.723435        -4.010449
 H         0.882467        -0.047721        -2.723036
 H         2.349630        -0.620490        -2.048664
 H         0.379449         1.635700        -1.375690
 H         2.326505         3.297643        -0.583960
 H         3.362800         1.787270        -0.361318
 H         2.393609        -0.041732         0.366486
