19
Iteration:  4525charge 0 multiplicity 1
 O         4.377180         2.829238        -2.576643
 C         3.003104         2.389718        -2.412743
 C         2.105586         2.459172        -3.523577
 C         2.596241         1.114024        -3.017903
 C         1.809069         0.206477        -2.005810
 C         1.419528         1.263235        -1.018723
 C         2.447714         2.526313        -1.033438
 C         1.346092         0.543273         0.355434
 O         0.365021         0.114387         0.977104
 H         4.401050         3.782316        -2.659389
 H         1.064153         2.785898        -3.460967
 H         2.506264         2.728674        -4.472929
 H         3.206094         0.486590        -3.826466
 H         0.968707        -0.348318        -2.393744
 H         2.511875        -0.497751        -1.581783
 H         0.365814         1.634454        -1.151836
 H         2.151986         3.572399        -0.952714
 H         3.252777         2.422279        -0.289224
 H         2.482252         0.304389         0.596928
