19
Iteration:   220charge 0 multiplicity 1
 O         4.261819         2.897809        -2.187782
 C         3.040177         2.247372        -2.381758
 C         2.070572         2.618864        -3.533905
 C         2.585255         1.208547        -3.189159
 C         1.850800         0.205568        -2.177429
 C         1.185058         1.027888        -1.179395
 C         2.290682         2.271114        -1.048204
 C         1.426908         0.481023         0.168822
 O         0.709227         0.461039         1.169728
 H         4.648016         2.991732        -3.059783
 H         1.038711         2.814158        -3.161137
 H         2.582389         3.005505        -4.377471
 H         3.179855         0.660539        -3.965905
 H         1.264524        -0.367976        -2.821700
 H         2.555230        -0.428032        -1.637573
 H         0.210614         1.451209        -1.370060
 H         1.693556         3.129750        -0.849741
 H         3.073491         2.270896        -0.270879
 H         2.343310         0.017104         0.245795
