19
Iteration:  2252
 O         4.303694         2.977474        -2.614414
 C         3.126590         2.335533        -2.382419
 C         2.001480         2.426347        -3.385935
 C         2.609250         1.103912        -3.102695
 C         1.923089         0.226588        -2.123649
 C         1.405013         1.221726        -0.948381
 C         2.580836         2.336294        -0.990580
 C         1.313827         0.461038         0.306611
 O         0.273659         0.264738         0.971075
 H         4.368856         3.801756        -3.105138
 H         1.004495         2.811180        -3.034443
 H         2.339034         2.982594        -4.239496
 H         3.223496         0.580797        -3.847633
 H         0.936115        -0.275140        -2.595082
 H         2.540458        -0.659896        -1.662295
 H         0.490783         1.840573        -1.048910
 H         2.235734         3.396459        -0.838323
 H         3.336107         2.266358        -0.203665
 H         2.279101         0.043141         0.724066
