19
Iteration:  2521
 O         4.333256         3.028253        -2.508691
 C         3.028181         2.404789        -2.384166
 C         2.106209         2.475786        -3.568874
 C         2.560121         1.164781        -3.227417
 C         1.838824         0.174022        -2.190695
 C         1.402120         1.026783        -1.013924
 C         2.480881         2.170375        -0.980927
 C         1.354661         0.466823         0.393689
 O         0.347951         0.454587         1.161443
 H         4.238029         3.994500        -2.702492
 H         1.198097         3.080415        -3.508244
 H         2.833795         2.753499        -4.453023
 H         3.361144         0.672009        -3.735097
 H         1.048569        -0.324326        -2.672744
 H         2.550677        -0.671337        -1.882127
 H         0.408174         1.533647        -1.217459
 H         2.194406         3.156603        -0.575849
 H         3.288106         1.761376        -0.374246
 H         2.237869        -0.270347         0.684625
