19
Iteration:   567
 O         4.425921         2.853825        -2.517400
 C         3.057050         2.395094        -2.437309
 C         2.065059         2.523492        -3.459650
 C         2.499432         1.146729        -3.187111
 C         1.701808         0.283288        -2.166627
 C         1.377871         1.277258        -0.905246
 C         2.454439         2.379023        -1.060455
 C         1.449548         0.520340         0.395592
 O         0.449290         0.036191         0.987215
 H         4.448785         3.711784        -2.047266
 H         1.076874         2.881054        -3.074220
 H         2.472368         2.955002        -4.389703
 H         3.218516         0.731398        -3.873614
 H         0.764145         0.051821        -2.676950
 H         2.273556        -0.558330        -2.162700
 H         0.334384         1.667650        -0.807437
 H         2.071824         3.389329        -0.826150
 H         3.138977         2.273845        -0.308973
 H         2.455493         0.344089         0.828808
