19
Iteration:  3525
 O         4.294040         2.936387        -2.563360
 C         3.095595         2.336149        -2.335858
 C         2.065786         2.346463        -3.452177
 C         2.593297         1.034518        -3.062858
 C         1.788986         0.252964        -2.095012
 C         1.407961         1.347726        -1.026307
 C         2.526273         2.435797        -0.945090
 C         1.371794         0.588253         0.303589
 O         0.391743         0.121668         0.899003
 H         4.334781         3.903763        -2.853502
 H         1.093464         2.622211        -3.227456
 H         2.429279         3.008112        -4.257042
 H         3.201565         0.419546        -3.671691
 H         0.939426        -0.125610        -2.689176
 H         2.189198        -0.710405        -1.707447
 H         0.404400         1.846964        -1.115838
 H         2.084179         3.511766        -0.739274
 H         3.262698         2.229871        -0.010117
 H         2.409498         0.258944         0.595354
