19
Iteration:  1906charge 0 multiplicity 1
 O         4.388611         3.016548        -2.400877
 C         2.974149         2.435545        -2.353183
 C         2.072054         2.639082        -3.659255
 C         2.612707         1.197867        -3.166345
 C         1.706713         0.244272        -2.299077
 C         1.387978         1.101971        -1.000972
 C         2.543470         2.198128        -1.002438
 C         1.332444         0.280282         0.390143
 O         0.418248         0.332915         1.225324
 H         4.661867         3.046347        -3.318040
 H         1.019442         3.037531        -3.665420
 H         2.701640         3.057725        -4.561762
 H         3.347763         0.806301        -3.815528
 H         0.727119        -0.125545        -2.675912
 H         2.169629        -0.720632        -1.920686
 H         0.509900         1.682440        -1.245361
 H         2.234941         3.047687        -0.443522
 H         3.433514         1.798020        -0.565534
 H         2.244428        -0.374200         0.465508
