19
Iteration:   332charge 0 multiplicity 1
 O         4.269907         3.045379        -2.535958
 C         3.056889         2.330050        -2.417411
 C         1.876693         2.466062        -3.383972
 C         2.560604         1.142644        -3.203476
 C         1.963875         0.179751        -2.104400
 C         1.441059         1.253300        -0.965056
 C         2.656833         2.186595        -0.971876
 C         1.307019         0.459220         0.235689
 O         0.339667         0.328514         0.973002
 H         4.511196         3.270102        -1.597158
 H         0.741703         2.827170        -3.228695
 H         2.217569         3.171733        -4.290535
 H         3.091601         0.785048        -4.069461
 H         1.191378        -0.428580        -2.523253
 H         2.745841        -0.489265        -1.746278
 H         0.509456         1.716762        -1.192757
 H         2.553750         3.095112        -0.349850
 H         3.497270         1.723454        -0.436540
 H         2.340165         0.143993         0.493717
