19
Iteration:  3708charge 0 multiplicity 1
 O         4.247759         3.003351        -2.424136
 C         3.019846         2.284091        -2.372223
 C         1.969636         2.440475        -3.435245
 C         2.780144         1.015072        -3.129762
 C         1.892388         0.302181        -2.166253
 C         1.326306         1.147644        -1.057444
 C         2.500122         2.234904        -0.961460
 C         1.332002         0.364292         0.227563
 O         0.468810         0.548679         1.025247
 H         4.298505         3.548113        -3.229394
 H         0.920132         2.468974        -3.155165
 H         2.188806         2.964629        -4.312260
 H         3.522927         0.627244        -3.746499
 H         1.058182        -0.115701        -2.700444
 H         2.473604        -0.575074        -1.944998
 H         0.368707         1.690627        -1.211472
 H         1.962009         3.134139        -0.579723
 H         3.154723         2.145329        -0.098882
 H         2.260732        -0.172044         0.438513
