19
Iteration:  4544charge 0 multiplicity 1
 O         4.429918         2.840603        -2.654662
 C         3.118002         2.325331        -2.380904
 C         1.989400         2.331301        -3.468543
 C         2.671567         1.093594        -3.032157
 C         1.850552         0.318677        -2.070691
 C         1.300786         1.354473        -0.960541
 C         2.370607         2.427916        -0.924594
 C         1.369414         0.582475         0.311204
 O         0.399526         0.136979         0.912074
 H         4.483511         3.803134        -2.655799
 H         0.963994         2.608140        -3.159201
 H         2.163141         2.742179        -4.409109
 H         3.447167         0.566399        -3.641145
 H         0.991837        -0.193576        -2.533737
 H         2.484183        -0.528773        -1.714796
 H         0.336130         1.818365        -1.216592
 H         1.840437         3.480642        -0.677394
 H         3.009491         2.364335        -0.014299
 H         2.485512         0.486661         0.545177
