19
Iteration:  1481
 O         4.422051         2.898333        -2.616039
 C         3.059797         2.391956        -2.383373
 C         1.981919         2.724654        -3.376014
 C         2.514482         1.261851        -3.184454
 C         1.763072         0.260235        -2.288512
 C         1.532876         1.118965        -0.923207
 C         2.570521         2.243994        -0.878818
 C         1.356912         0.263745         0.407241
 O         0.340202         0.262473         1.011680
 H         4.296821         3.709660        -3.093460
 H         0.970186         3.078443        -3.006744
 H         2.107705         3.011819        -4.518343
 H         3.219107         0.916992        -3.994550
 H         0.797755        -0.185410        -2.659937
 H         2.377791        -0.556374        -2.092068
 H         0.528033         1.527415        -0.980803
 H         2.071198         3.182071        -0.594196
 H         3.460847         1.964291        -0.365434
 H         2.140679        -0.403522         0.836907
