19
Iteration:   225charge 0 multiplicity 1
 O         4.273780         2.929934        -2.189593
 C         3.066643         2.303810        -2.365116
 C         2.057673         2.594596        -3.516025
 C         2.563797         1.139619        -3.188535
 C         1.870778         0.212887        -2.166154
 C         1.172852         1.072437        -1.180766
 C         2.321334         2.280964        -1.093194
 C         1.362914         0.447365         0.162080
 O         0.715528         0.453587         1.181257
 H         4.707880         2.880431        -3.087919
 H         1.069073         2.836194        -3.026711
 H         2.533942         3.144794        -4.407279
 H         3.224508         0.718977        -3.918667
 H         1.099240        -0.424627        -2.736348
 H         2.659742        -0.413560        -1.702905
 H         0.129733         1.363728        -1.444034
 H         1.703646         3.215133        -0.962381
 H         3.079300         2.030897        -0.319626
 H         2.491450        -0.095101         0.262787
