19
Iteration:  3990
 O         4.308634         2.920507        -2.667726
 C         2.990663         2.488983        -2.433978
 C         2.015175         2.455095        -3.652894
 C         2.658008         1.163122        -3.041213
 C         1.948227         0.221957        -2.071606
 C         1.515222         1.181541        -0.850492
 C         2.602863         2.322924        -0.913326
 C         1.284747         0.553866         0.495381
 O         0.195030         0.177766         0.906766
 H         4.438080         3.904767        -2.806989
 H         0.919369         2.484517        -3.702606
 H         2.502996         2.805398        -4.583392
 H         3.393180         0.546966        -3.708894
 H         0.915787        -0.084088        -2.461804
 H         2.465994        -0.672448        -1.774179
 H         0.557902         1.643138        -1.202507
 H         2.374443         2.991614        -0.137257
 H         3.438056         1.831893        -0.520484
 H         2.264835         0.331423         1.020534
