19
Iteration:  1971
 O         4.386477         2.800407        -2.576046
 C         3.029388         2.397584        -2.300048
 C         2.040134         2.485144        -3.429480
 C         2.661306         1.219844        -3.069984
 C         1.695006         0.358120        -2.299481
 C         1.305041         1.170030        -1.138619
 C         2.331900         2.333288        -0.902161
 C         1.414205         0.448360         0.242019
 O         0.573764         0.289750         1.092237
 H         4.694957         2.967341        -1.647773
 H         0.985401         2.761173        -3.202975
 H         2.482722         2.842398        -4.463094
 H         3.479511         0.893177        -3.712413
 H         0.844852        -0.082847        -2.808643
 H         2.344597        -0.462676        -1.971677
 H         0.239170         1.514416        -1.142791
 H         1.817929         3.183201        -0.525581
 H         3.041306         1.952335        -0.234337
 H         2.502740         0.047019         0.551831
