19
Iteration:  2652charge 0 multiplicity 1
 O         4.385837         2.844755        -2.644666
 C         3.040542         2.438962        -2.450443
 C         2.001122         2.480846        -3.547686
 C         2.621372         1.150841        -3.110122
 C         1.827787         0.249469        -2.112796
 C         1.448594         1.192618        -0.935974
 C         2.541934         2.373986        -0.919518
 C         1.355042         0.535082         0.526262
 O         0.267373         0.162836         0.912417
 H         4.417820         3.808377        -2.369415
 H         0.942459         2.895906        -3.307346
 H         2.394987         2.759421        -4.525720
 H         3.380167         0.730520        -3.766055
 H         1.016619        -0.175599        -2.630202
 H         2.463721        -0.617364        -1.951975
 H         0.449158         1.572278        -1.184376
 H         2.131984         3.291844        -0.415155
 H         3.520424         2.044826        -0.347573
 H         2.306676         0.503492         1.143377
