19
Iteration:  4522
 O         4.361311         2.828039        -2.560762
 C         3.000388         2.385587        -2.456211
 C         2.116699         2.483379        -3.544385
 C         2.603420         1.087141        -3.029461
 C         1.817168         0.225717        -2.000492
 C         1.403060         1.251866        -0.992506
 C         2.447611         2.510563        -1.025485
 C         1.348314         0.535847         0.373789
 O         0.366101         0.121685         0.970813
 H         4.430609         3.801602        -2.674503
 H         1.084584         2.847784        -3.470202
 H         2.497798         2.719552        -4.488908
 H         3.191151         0.543328        -3.734166
 H         0.969251        -0.365486        -2.378353
 H         2.543234        -0.539595        -1.660777
 H         0.408713         1.669047        -1.168770
 H         2.126544         3.638129        -0.892310
 H         3.273376         2.436261        -0.287274
 H         2.509332         0.286966         0.625298
