19
Iteration:  1630
 O         4.368366         2.703545        -2.562033
 C         3.041879         2.363054        -2.363673
 C         1.955519         2.639394        -3.484985
 C         2.465685         1.242484        -3.119048
 C         1.701669         0.406862        -2.132729
 C         1.384694         1.321429        -0.877056
 C         2.602813         2.334300        -0.918056
 C         1.425077         0.531038         0.301712
 O         0.496391        -0.009310         0.819176
 H         4.536941         3.385111        -1.906143
 H         0.959984         2.836986        -3.251994
 H         2.303021         3.110880        -4.388443
 H         3.107586         0.526160        -3.668718
 H         0.796250        -0.045685        -2.510272
 H         2.334462        -0.486934        -1.838465
 H         0.502977         1.959413        -0.896911
 H         2.184559         3.239946        -0.490198
 H         3.553568         2.060720        -0.335514
 H         2.473641         0.235018         0.619656
