19
Iteration:   357charge 0 multiplicity 1
 O         4.300446         2.826805        -2.624812
 C         3.010724         2.481880        -2.388426
 C         1.892536         2.557033        -3.420527
 C         2.541757         1.236984        -3.120231
 C         1.983639         0.197856        -2.111379
 C         1.559166         1.101063        -0.902967
 C         2.572266         2.273950        -0.919919
 C         1.399315         0.450017         0.387791
 O         0.261360         0.302466         0.823404
 H         4.392965         3.786760        -2.354613
 H         0.902730         2.799920        -3.071870
 H         2.061786         3.043425        -4.354848
 H         3.156247         0.854140        -3.955295
 H         1.155768        -0.442366        -2.550511
 H         2.820527        -0.430098        -1.914312
 H         0.520931         1.465495        -1.127103
 H         2.163575         3.121481        -0.312260
 H         3.472854         2.055106        -0.376721
 H         2.361729         0.094308         0.871722
