19
Iteration:  1287charge 0 multiplicity 1
 O         4.303547         2.940566        -2.366322
 C         3.007354         2.466904        -2.380155
 C         1.988680         2.534658        -3.558582
 C         2.536850         1.228836        -3.116059
 C         1.702242         0.290370        -2.282267
 C         1.478632         1.067264        -0.969943
 C         2.542444         2.304256        -0.920381
 C         1.441670         0.284190         0.305868
 O         0.468369         0.336611         0.976764
 H         4.818472         2.742758        -3.130196
 H         0.941090         2.992808        -3.463446
 H         2.348686         2.760027        -4.548813
 H         3.276653         0.911819        -3.856991
 H         0.731812         0.333626        -2.679409
 H         1.991187        -0.733304        -1.929083
 H         0.504497         1.640156        -0.873086
 H         2.380951         3.176180        -0.232072
 H         3.416722         1.873741        -0.380226
 H         2.380307        -0.240010         0.722973
