19
Iteration:  1766
 O         4.373954         3.041644        -2.481759
 C         3.135908         2.357038        -2.330108
 C         1.961540         2.572755        -3.319336
 C         2.465886         1.114593        -3.202226
 C         1.717213         0.284400        -2.195547
 C         1.461008         1.245099        -1.009651
 C         2.647699         2.237031        -0.874169
 C         1.370334         0.356267         0.265159
 O         0.368069         0.254545         0.916930
 H         4.624408         2.876195        -3.422326
 H         0.999161         2.993176        -2.886648
 H         2.190848         2.927650        -4.355010
 H         2.758257         0.545514        -4.043897
 H         0.756694        -0.262749        -2.444531
 H         2.364134        -0.585502        -2.044626
 H         0.513770         1.701709        -1.004114
 H         2.391171         3.276099        -0.572423
 H         3.539610         1.822343        -0.363295
 H         2.391390        -0.027672         0.502426
