19
Iteration:  2185charge 0 multiplicity 1
 O         4.250302         3.164825        -2.603205
 C         3.157864         2.271839        -2.462727
 C         1.959664         2.421525        -3.415744
 C         2.630547         1.065042        -3.159375
 C         1.875867         0.267971        -2.068281
 C         1.464252         1.259042        -0.868419
 C         2.670816         2.211611        -0.903171
 C         1.266530         0.524404         0.348939
 O         0.243491         0.240796         0.883475
 H         4.932608         2.730307        -3.190244
 H         0.956000         2.664618        -2.964880
 H         2.152956         3.132234        -4.209470
 H         3.301814         0.707587        -3.955599
 H         0.912684        -0.249899        -2.547321
 H         2.515072        -0.665671        -1.900613
 H         0.448301         1.586214        -1.147730
 H         2.402398         3.249851        -0.570294
 H         3.493082         1.927103        -0.281720
 H         2.185678         0.184125         0.958538
