19
Iteration:   487
 O         4.485204         2.909843        -2.672292
 C         3.111155         2.420101        -2.413421
 C         2.144527         2.543882        -3.521450
 C         2.527102         1.170954        -3.075524
 C         1.650241         0.311179        -2.092833
 C         1.354932         1.329193        -0.908904
 C         2.502753         2.472894        -0.961405
 C         1.329530         0.516234         0.497582
 O         0.395805        -0.167547         0.975510
 H         4.348228         3.478501        -3.437847
 H         1.182111         2.869013        -3.389701
 H         2.492383         2.858528        -4.463427
 H         2.937753         0.645959        -3.966514
 H         0.746394        -0.188634        -2.502966
 H         2.268387        -0.517579        -1.856307
 H         0.397267         1.816433        -1.078979
 H         2.035183         3.427765        -0.773609
 H         3.249481         2.185908        -0.295937
 H         2.326570         0.366075         0.962262
