19
Iteration:  4425charge 0 multiplicity 1
 O         4.308024         2.928395        -2.545932
 C         3.046761         2.392261        -2.368336
 C         2.013045         2.428838        -3.515870
 C         2.669069         1.092490        -3.038069
 C         1.854073         0.223287        -2.085089
 C         1.436898         1.232126        -1.035469
 C         2.503315         2.359492        -0.981092
 C         1.330173         0.450767         0.248999
 O         0.391972         0.352181         1.029720
 H         4.150502         3.891797        -2.386334
 H         0.954964         2.475174        -3.484069
 H         2.536837         2.709611        -4.376854
 H         3.373146         0.550412        -3.705014
 H         0.939713        -0.127154        -2.557171
 H         2.321812        -0.704058        -1.720665
 H         0.343688         1.497706        -1.271926
 H         1.968968         3.299230        -0.656674
 H         3.292829         2.112384        -0.267706
 H         2.197038        -0.334437         0.319695
