19
Iteration:  1695charge 0 multiplicity 1
 O         4.323448         2.890082        -2.681120
 C         3.011916         2.452948        -2.377225
 C         2.156849         2.705615        -3.509580
 C         2.532460         1.183560        -3.080034
 C         1.661707         0.406910        -2.161332
 C         1.424516         1.227471        -0.880607
 C         2.604004         2.334013        -0.906728
 C         1.367117         0.415561         0.391752
 O         0.364138        -0.029203         0.976533
 H         4.958271         2.187336        -2.890427
 H         1.156151         2.829226        -3.320467
 H         2.540013         3.140539        -4.447387
 H         3.202156         0.700194        -3.853744
 H         0.866368        -0.041868        -2.710833
 H         2.177486        -0.540557        -1.866555
 H         0.358946         1.618192        -0.909348
 H         2.256048         3.297235        -0.506437
 H         3.577121         1.995351        -0.441781
 H         2.313135         0.331098         0.837416
