19
Iteration:   594
 O         4.330842         2.900402        -2.629270
 C         3.056605         2.452587        -2.373953
 C         2.173011         2.570552        -3.562345
 C         2.601968         1.196516        -3.069058
 C         1.698587         0.369821        -2.164022
 C         1.294206         1.250076        -0.968185
 C         2.515757         2.261478        -0.902462
 C         1.281012         0.413079         0.308015
 O         0.480791         0.059023         1.125381
 H         4.277689         3.640468        -3.255923
 H         1.098772         2.845001        -3.493294
 H         2.784630         2.885773        -4.413800
 H         3.181514         0.610104        -3.824383
 H         0.922488        -0.042104        -2.811845
 H         2.426606        -0.491466        -1.992815
 H         0.366061         1.784955        -0.918436
 H         2.285394         3.225316        -0.418015
 H         3.363798         1.810056        -0.201502
 H         2.367238         0.210237         0.516296
