19
Iteration:  4581
 O         4.350820         2.919145        -2.609793
 C         2.982799         2.409583        -2.398891
 C         2.073441         2.349201        -3.649006
 C         2.581577         1.082108        -3.020589
 C         1.810676         0.245452        -2.050496
 C         1.482300         1.300803        -0.897976
 C         2.515686         2.377137        -0.884780
 C         1.328101         0.602067         0.362853
 O         0.343148         0.140457         0.908300
 H         4.132112         3.884416        -2.662259
 H         1.134078         2.789950        -3.497134
 H         2.678435         2.546690        -4.588916
 H         3.431804         0.541318        -3.521364
 H         0.880962        -0.092520        -2.486777
 H         2.410916        -0.566763        -1.753586
 H         0.500452         1.769465        -1.138669
 H         2.190868         3.351871        -0.878293
 H         3.431907         2.209016        -0.298660
 H         2.322063         0.215448         0.847288
