19
Iteration:  1279charge 0 multiplicity 1
 O         4.369410         2.971400        -2.355313
 C         2.979831         2.427771        -2.383858
 C         1.961714         2.588611        -3.561377
 C         2.525383         1.168309        -3.084948
 C         1.671145         0.322669        -2.253214
 C         1.457937         1.142334        -0.945780
 C         2.562268         2.263393        -0.905962
 C         1.477166         0.278371         0.274923
 O         0.455217         0.332126         0.982078
 H         4.792554         2.878487        -3.193588
 H         0.889541         2.716810        -3.449916
 H         2.328684         2.807623        -4.584639
 H         3.358046         0.654326        -3.712978
 H         0.684066        -0.004271        -2.770284
 H         2.181301        -0.599676        -2.229779
 H         0.404126         1.597176        -1.115463
 H         2.184365         3.206896        -0.411612
 H         3.468784         1.877438        -0.492801
 H         2.406093        -0.273768         0.601130
