19
Iteration:  2076
 O         4.403584         2.886653        -2.545935
 C         3.074683         2.353107        -2.362777
 C         2.019966         2.456428        -3.458463
 C         2.642364         1.114414        -3.125698
 C         1.763116         0.318294        -2.210227
 C         1.338688         1.290532        -1.056534
 C         2.438190         2.348260        -0.854449
 C         1.409806         0.494468         0.314839
 O         0.426461         0.180631         0.987393
 H         4.161956         3.539923        -3.228325
 H         1.071183         2.682026        -3.063469
 H         2.337966         3.122851        -4.299142
 H         3.365169         0.582563        -3.662679
 H         0.838604        -0.053961        -2.718622
 H         2.256135        -0.645707        -1.832614
 H         0.317084         1.726940        -1.022059
 H         1.918369         3.183401        -0.300842
 H         3.217202         2.010878        -0.142991
 H         2.515765         0.268997         0.578345
