19
Iteration:  4102
 O         4.357975         2.953463        -2.616392
 C         3.078365         2.397262        -2.442836
 C         2.152204         2.501825        -3.591197
 C         2.660782         1.093626        -3.119173
 C         1.821113         0.220949        -1.968114
 C         1.378046         1.216041        -0.939432
 C         2.467924         2.404657        -1.036414
 C         1.296543         0.515753         0.433802
 O         0.298872         0.087689         1.036732
 H         4.354726         3.792479        -3.047845
 H         1.165703         2.978098        -3.505439
 H         2.602344         2.949259        -4.545374
 H         3.435327         0.664174        -3.670065
 H         0.901180        -0.151017        -2.444461
 H         2.337109        -0.657779        -1.770893
 H         0.487277         1.724388        -1.174304
 H         1.960316         3.319665        -0.777942
 H         3.217448         2.210243        -0.339984
 H         2.283402         0.305744         0.847335
