19
Iteration:  2481
 O         4.343919         2.882123        -2.355910
 C         3.025112         2.352844        -2.346510
 C         1.890846         2.361125        -3.414855
 C         2.672929         1.095822        -3.081583
 C         1.848509         0.259372        -2.218666
 C         1.392097         1.243108        -1.134191
 C         2.400460         2.293503        -1.023857
 C         1.427465         0.421553         0.210594
 O         0.494258         0.506303         1.035428
 H         4.495128         3.391874        -3.152309
 H         0.823133         2.584689        -3.240299
 H         2.241725         3.022243        -4.194165
 H         3.441175         0.840178        -3.770381
 H         0.901891        -0.258281        -2.663306
 H         2.505318        -0.520144        -1.764581
 H         0.351804         1.458415        -1.302316
 H         1.936987         3.195650        -0.536170
 H         3.130253         1.947638        -0.225015
 H         2.393209        -0.193081         0.424966
