19
Iteration:  1367charge 0 multiplicity 1
 O         4.287692         2.895608        -2.542884
 C         3.001933         2.401053        -2.348518
 C         1.966127         2.562129        -3.452260
 C         2.514024         1.231001        -3.183119
 C         1.812770         0.331535        -2.318342
 C         1.414735         1.124950        -0.957689
 C         2.591718         2.269230        -0.835565
 C         1.413988         0.289472         0.280821
 O         0.450840         0.362819         1.000934
 H         4.782665         2.791115        -1.748731
 H         1.034469         2.794377        -3.029627
 H         2.355604         3.169647        -4.237563
 H         3.092165         0.804492        -4.055547
 H         0.902521        -0.210479        -2.658028
 H         2.438648        -0.446789        -2.010887
 H         0.487478         1.749715        -0.988649
 H         2.271993         3.230726        -0.458453
 H         3.443599         1.846416        -0.340582
 H         2.303539        -0.365753         0.303490
