19
Iteration:   398
 O         4.389780         3.029172        -2.729037
 C         3.093748         2.384476        -2.412893
 C         2.034524         2.532909        -3.396986
 C         2.527497         1.192139        -3.088625
 C         1.920062         0.265009        -2.086551
 C         1.452906         1.225725        -0.862575
 C         2.610519         2.345474        -0.918878
 C         1.251680         0.382027         0.356164
 O         0.238917         0.074062         0.936785
 H         4.523216         3.076702        -3.671758
 H         1.013341         2.933343        -3.019631
 H         2.156320         3.079998        -4.360257
 H         3.012402         0.719386        -3.929532
 H         1.077191        -0.326834        -2.383690
 H         2.605120        -0.442175        -1.643632
 H         0.521561         1.727972        -1.025669
 H         2.224935         3.376192        -0.711034
 H         3.434532         2.118467        -0.258100
 H         2.194565         0.153121         0.933870
