19
Iteration:   503
 O         4.443427         2.764008        -2.655765
 C         3.105962         2.382737        -2.421254
 C         2.069394         2.600664        -3.557408
 C         2.503793         1.171636        -3.106184
 C         1.802301         0.418053        -2.026040
 C         1.299118         1.364352        -0.842744
 C         2.435889         2.411161        -0.974285
 C         1.300934         0.494098         0.339597
 O         0.469220        -0.136599         0.966084
 H         4.510097         3.698279        -2.874083
 H         1.033377         3.097172        -3.289502
 H         2.487295         2.936244        -4.550507
 H         3.297823         0.618593        -3.570563
 H         0.929431        -0.132307        -2.375229
 H         2.457607        -0.336520        -1.469831
 H         0.272919         1.749877        -1.079221
 H         2.004603         3.438545        -0.843715
 H         3.319153         2.256761        -0.211522
 H         2.394816         0.506382         0.687343
