19
Iteration:  3792charge 0 multiplicity 1
 O         4.266951         2.933266        -2.358252
 C         3.026305         2.420860        -2.426031
 C         2.147713         2.496621        -3.698824
 C         2.663491         1.142209        -3.151585
 C         1.843409         0.147152        -2.181713
 C         1.416307         1.079903        -1.040636
 C         2.369903         2.297332        -0.973527
 C         1.344157         0.422615         0.337373
 O         0.452287         0.465919         1.190441
 H         4.334422         3.726255        -2.876701
 H         1.089583         2.780168        -3.598820
 H         2.595015         2.915564        -4.574186
 H         3.144869         0.540763        -3.929184
 H         0.861756        -0.164997        -2.672069
 H         2.539717        -0.696494        -2.018985
 H         0.405739         1.473241        -1.272420
 H         1.779382         3.078307        -0.569009
 H         3.256947         2.013479        -0.415814
 H         2.267669        -0.121981         0.580149
