19
Iteration:  2620
 O         4.357812         2.855547        -2.579240
 C         2.970108         2.390420        -2.439172
 C         2.015036         2.557044        -3.546126
 C         2.637264         1.164336        -3.207126
 C         1.897538         0.226961        -2.150896
 C         1.435946         1.092310        -0.963905
 C         2.618749         2.322338        -0.921905
 C         1.334357         0.527600         0.503312
 O         0.231679         0.242543         1.023687
 H         4.179335         3.716766        -2.970764
 H         0.918540         2.959300        -3.444674
 H         2.429535         3.044227        -4.413534
 H         3.474778         0.871526        -3.821697
 H         1.097490        -0.228519        -2.580844
 H         2.668198        -0.493438        -1.832436
 H         0.492751         1.496807        -1.351948
 H         2.134950         3.208251        -0.431734
 H         3.482577         1.991394        -0.269705
 H         2.292124         0.488594         1.049925
