19
Iteration:  3106charge 0 multiplicity 1
 O         4.325280         2.907449        -2.387698
 C         2.996198         2.371879        -2.325197
 C         2.027740         2.429027        -3.443038
 C         2.688719         1.089822        -3.173421
 C         1.937837         0.187649        -2.123336
 C         1.313722         1.162457        -1.197189
 C         2.311697         2.402299        -1.049514
 C         1.244086         0.321744         0.154670
 O         0.676003         0.546655         1.155208
 H         4.264049         3.735127        -1.927944
 H         0.871165         2.282147        -3.408634
 H         2.422450         2.812065        -4.391239
 H         3.569822         0.859207        -3.755858
 H         1.047130        -0.344930        -2.502749
 H         2.586712        -0.621008        -1.669325
 H         0.196086         1.541739        -1.352254
 H         1.511499         3.187803        -0.847725
 H         2.988358         2.330203        -0.291269
 H         1.811819        -0.611523         0.089757
