19
Iteration:  4644
 O         4.375929         2.930608        -2.691971
 C         3.005808         2.426285        -2.281529
 C         1.976811         2.336037        -3.394711
 C         2.631730         1.043599        -3.036817
 C         1.894939         0.231287        -2.141276
 C         1.454108         1.228546        -1.007608
 C         2.523476         2.330742        -0.929229
 C         1.329729         0.545391         0.306359
 O         0.300808         0.301327         0.912677
 H         4.341137         3.877235        -2.999997
 H         0.981906         2.542330        -3.200525
 H         2.328600         2.861869        -4.298918
 H         3.462428         0.739905        -3.760888
 H         0.988513        -0.288826        -2.422120
 H         2.593540        -0.420090        -1.524245
 H         0.453171         1.551519        -1.320854
 H         1.986362         3.299086        -0.474697
 H         3.280015         2.020166        -0.160037
 H         2.470714         0.404924         0.774503
