19
Iteration:  4070charge 0 multiplicity 1
 O         4.347587         2.816629        -2.614617
 C         2.979770         2.476683        -2.412371
 C         1.999336         2.404455        -3.654068
 C         2.667619         1.132307        -3.112353
 C         1.948137         0.304332        -2.029703
 C         1.433570         1.269986        -0.849046
 C         2.479211         2.398628        -0.928563
 C         1.332409         0.492357         0.441693
 O         0.290770         0.156140         0.885003
 H         4.490443         3.791469        -2.834144
 H         0.930018         2.667292        -3.469665
 H         2.625673         2.832501        -4.494217
 H         3.495857         0.810663        -3.664729
 H         0.949791        -0.133554        -2.359982
 H         2.640319        -0.550092        -1.687551
 H         0.468304         1.693173        -1.067300
 H         2.002031         3.282087        -0.523763
 H         3.281232         2.126619        -0.316716
 H         2.332508         0.167724         0.951906
