19
Iteration:  1355
 O         4.313426         2.927854        -2.554266
 C         3.040916         2.383139        -2.332958
 C         1.928079         2.655393        -3.402050
 C         2.578976         1.241525        -3.135490
 C         1.762447         0.214927        -2.172520
 C         1.371262         1.190188        -1.043837
 C         2.586034         2.256735        -0.946796
 C         1.366375         0.318375         0.155791
 O         0.491397         0.319053         1.066930
 H         4.909813         2.462701        -1.894994
 H         0.971771         2.909230        -3.092789
 H         2.153354         3.137656        -4.370543
 H         3.332045         0.941998        -3.934227
 H         0.915113        -0.236401        -2.694490
 H         2.489906        -0.537046        -1.863649
 H         0.311973         1.545646        -1.243929
 H         2.384000         3.195215        -0.401860
 H         3.324645         1.819352        -0.281650
 H         2.235441        -0.298688         0.439619
