19
Iteration:  2637charge 0 multiplicity 1
 O         4.342203         2.817479        -2.626962
 C         3.004488         2.496980        -2.367122
 C         2.039018         2.534799        -3.614721
 C         2.603794         1.228561        -3.081081
 C         1.934776         0.261474        -2.243581
 C         1.583911         1.141453        -0.895146
 C         2.492467         2.247489        -0.997525
 C         1.306566         0.575882         0.499005
 O         0.216177         0.177021         1.026205
 H         4.595760         3.734061        -2.807266
 H         1.029187         2.579059        -3.372709
 H         2.388361         2.871131        -4.616633
 H         3.263847         0.745345        -3.795181
 H         0.857841        -0.238625        -2.506621
 H         2.516660        -0.618609        -1.841504
 H         0.564743         1.582298        -0.930815
 H         2.192386         3.170228        -0.558957
 H         3.450313         1.956115        -0.481607
 H         2.137453         0.467934         1.255789
