19
Iteration:   568
 O         4.432283         2.858127        -2.527068
 C         3.055703         2.394118        -2.436062
 C         2.074296         2.528596        -3.462704
 C         2.502696         1.145019        -3.188802
 C         1.696937         0.282599        -2.167161
 C         1.372498         1.280230        -0.913360
 C         2.457286         2.375201        -1.056303
 C         1.442359         0.514822         0.402537
 O         0.449295         0.033460         0.996610
 H         4.391137         3.741891        -2.065050
 H         1.040388         2.909575        -3.059200
 H         2.500687         2.954300        -4.412495
 H         3.229714         0.744264        -3.856653
 H         0.770573         0.052632        -2.656174
 H         2.277459        -0.571405        -2.158740
 H         0.328159         1.669811        -0.835861
 H         2.061770         3.382009        -0.810722
 H         3.140590         2.253219        -0.277606
 H         2.454273         0.341704         0.811093
