19
Iteration:  1694
 O         4.320687         2.884370        -2.680031
 C         3.020668         2.452532        -2.383911
 C         2.156807         2.706399        -3.497975
 C         2.528122         1.183233        -3.090543
 C         1.668053         0.396751        -2.161046
 C         1.420440         1.233717        -0.881547
 C         2.601665         2.341904        -0.907434
 C         1.366613         0.411852         0.398290
 O         0.366507        -0.029089         0.973214
 H         4.972865         2.213274        -2.857688
 H         1.173042         2.815671        -3.327568
 H         2.543813         3.120564        -4.422659
 H         3.183861         0.702402        -3.878550
 H         0.851359        -0.009877        -2.718358
 H         2.190418        -0.531713        -1.861976
 H         0.340924         1.622105        -0.880240
 H         2.253564         3.307373        -0.483358
 H         3.546240         2.015464        -0.460897
 H         2.310551         0.346673         0.822030
