19
Iteration:  4775charge 0 multiplicity 1
 O         4.295253         3.040839        -2.473182
 C         2.974281         2.274564        -2.387544
 C         2.034232         2.445355        -3.535468
 C         2.736323         1.056999        -3.100466
 C         1.882588         0.164799        -2.219447
 C         1.421947         1.095945        -1.042849
 C         2.447308         2.301706        -0.994738
 C         1.301953         0.387853         0.279442
 O         0.424442         0.567224         1.110080
 H         4.175714         4.020615        -2.475198
 H         1.037467         2.548566        -3.210567
 H         2.322383         2.822316        -4.444919
 H         3.540790         0.811294        -3.659390
 H         1.188728        -0.417364        -2.815693
 H         2.261891        -0.709459        -1.603949
 H         0.451221         1.546815        -1.243063
 H         2.038126         3.287036        -0.628357
 H         3.242660         2.049379        -0.319959
 H         2.159636        -0.400290         0.558763
