19
Iteration:  4982charge 0 multiplicity 1
 O         4.293982         2.899746        -2.537604
 C         3.031046         2.432801        -2.410142
 C         2.044078         2.435847        -3.526556
 C         2.686545         1.048346        -3.041728
 C         1.928259         0.114523        -2.132656
 C         1.405834         1.221489        -1.057476
 C         2.409157         2.327179        -0.961747
 C         1.366300         0.584898         0.369425
 O         0.363452         0.322387         0.997529
 H         4.265739         3.870572        -2.772354
 H         1.024416         2.553988        -3.281917
 H         2.400942         2.963626        -4.418999
 H         3.456630         0.788113        -3.783183
 H         0.928492        -0.408514        -2.323158
 H         2.467590        -0.676006        -1.670778
 H         0.389458         1.589320        -1.466746
 H         1.869088         3.244865        -0.517244
 H         3.295303         2.065880        -0.320270
 H         2.444315         0.475449         0.659328
