19
Iteration:  2619charge 0 multiplicity 1
 O         4.359595         2.863113        -2.578692
 C         2.970328         2.379366        -2.428228
 C         2.014465         2.559779        -3.542085
 C         2.635748         1.150748        -3.211042
 C         1.903893         0.226481        -2.156232
 C         1.433268         1.096746        -0.978587
 C         2.613072         2.328856        -0.917328
 C         1.342021         0.528575         0.494444
 O         0.232244         0.246462         1.023165
 H         4.163619         3.735070        -2.969024
 H         0.930988         2.978047        -3.411011
 H         2.429783         3.022995        -4.433787
 H         3.436265         0.883477        -3.845389
 H         1.064380        -0.274954        -2.558022
 H         2.633616        -0.482703        -1.757746
 H         0.474718         1.506668        -1.332325
 H         2.155211         3.213955        -0.427021
 H         3.494301         1.961368        -0.241407
 H         2.304862         0.453297         1.065669
