19
Iteration:   373
 O         4.398675         2.839918        -2.711796
 C         2.941657         2.414164        -2.375087
 C         1.891105         2.640015        -3.358611
 C         2.603804         1.222051        -3.098584
 C         2.028213         0.218278        -2.172694
 C         1.585962         1.142070        -0.931339
 C         2.520803         2.363553        -0.915313
 C         1.358647         0.362051         0.479925
 O         0.199812         0.214892         0.876052
 H         4.364531         3.594763        -3.313646
 H         0.817162         2.984807        -3.199934
 H         2.159538         3.128556        -4.358263
 H         3.362291         0.941121        -3.809693
 H         1.087002        -0.220703        -2.460588
 H         2.635614        -0.695774        -1.818246
 H         0.574584         1.502960        -1.127281
 H         2.149047         3.362238        -0.745682
 H         3.438581         2.138112        -0.259126
 H         2.186604         0.038555         1.252947
