19
Iteration:  4326
 O         4.250279         2.904806        -2.512149
 C         2.984504         2.402109        -2.357680
 C         1.934286         2.413665        -3.483286
 C         2.695621         1.121709        -3.091051
 C         1.967752         0.198577        -2.181081
 C         1.467363         1.147695        -1.028722
 C         2.549534         2.294830        -0.921489
 C         1.303427         0.387444         0.261114
 O         0.367564         0.545485         1.012153
 H         4.314459         3.887642        -2.302699
 H         0.920271         2.411362        -3.165154
 H         2.117967         2.775200        -4.525332
 H         3.399118         0.751640        -3.732038
 H         1.152117        -0.392732        -2.642800
 H         2.692955        -0.559738        -1.774432
 H         0.500814         1.562160        -1.473587
 H         2.172151         3.231253        -0.445736
 H         3.429765         2.017706        -0.373053
 H         2.098187        -0.466895         0.395643
