19
Iteration:  3700
 O         4.272666         3.036276        -2.421577
 C         3.062212         2.320893        -2.404349
 C         1.989712         2.413353        -3.490860
 C         2.692680         1.098137        -3.110852
 C         1.870256         0.223082        -2.226982
 C         1.419405         1.145435        -1.033975
 C         2.499110         2.205081        -0.986827
 C         1.325431         0.387616         0.281128
 O         0.410073         0.518369         1.090389
 H         4.245550         3.634202        -3.209670
 H         0.935475         2.571877        -3.163452
 H         2.309456         3.059996        -4.312622
 H         3.525906         0.604316        -3.592170
 H         1.089894        -0.199357        -2.857948
 H         2.465177        -0.587020        -1.694760
 H         0.349470         1.650271        -1.261774
 H         2.016181         3.203235        -0.854473
 H         3.160163         2.024348        -0.191258
 H         2.190939        -0.345995         0.451333
