19
Iteration:   281
 O         4.171725         3.113550        -2.550309
 C         2.938725         2.410842        -2.281020
 C         2.156947         2.503502        -3.550057
 C         2.734051         1.092167        -3.108318
 C         1.754134         0.300712        -2.331590
 C         1.479626         1.059404        -0.966037
 C         2.498004         2.255024        -0.884607
 C         1.400469         0.242723         0.354264
 O         0.423914         0.492117         1.080502
 H         4.686591         2.453751        -3.020954
 H         1.122985         2.554577        -3.723007
 H         2.448643         3.070660        -4.390091
 H         3.519969         0.770414        -3.798224
 H         0.780682         0.093120        -2.909953
 H         2.099589        -0.719110        -2.042536
 H         0.393753         1.403757        -0.940802
 H         2.008538         3.024584        -0.231586
 H         3.418408         1.939056        -0.310683
 H         1.962475        -0.628187         0.434399
