19
Iteration:  1325
 O         4.337858         3.018331        -2.537195
 C         3.126441         2.335389        -2.325734
 C         2.027278         2.601230        -3.420775
 C         2.567740         1.264986        -3.226839
 C         1.756251         0.262934        -2.234067
 C         1.285504         1.175900        -1.061383
 C         2.516758         2.229908        -0.905383
 C         1.309067         0.345296         0.296892
 O         0.495800         0.267771         1.127102
 H         4.967389         2.395887        -2.943313
 H         1.076160         2.953864        -3.054512
 H         2.432289         3.092019        -4.310693
 H         3.119349         0.788087        -4.101029
 H         0.990410        -0.330694        -2.820605
 H         2.458148        -0.458407        -1.903643
 H         0.226035         1.412342        -1.143227
 H         2.198830         3.195915        -0.546916
 H         3.245674         1.815253        -0.195813
 H         2.392912        -0.014837         0.448333
