19
Iteration:  4518charge 0 multiplicity 1
 O         4.335707         2.825170        -2.534646
 C         3.031757         2.387380        -2.497632
 C         2.105616         2.518645        -3.597996
 C         2.596424         1.038368        -3.047816
 C         1.844058         0.264316        -2.010815
 C         1.368297         1.255525        -0.914127
 C         2.441395         2.485177        -1.016765
 C         1.368032         0.518721         0.400070
 O         0.376382         0.139464         0.956843
 H         4.416089         3.781867        -2.696831
 H         1.114594         2.933976        -3.432955
 H         2.580321         2.731614        -4.658968
 H         3.324990         0.579255        -3.694400
 H         0.966472        -0.342801        -2.375351
 H         2.583038        -0.563326        -1.733554
 H         0.431674         1.707655        -1.241696
 H         2.007674         3.466138        -0.781604
 H         3.296180         2.383707        -0.330354
 H         2.331337         0.265443         0.746046
