19
Iteration:  3277charge 0 multiplicity 1
 O         4.330341         2.888907        -2.517571
 C         3.055333         2.370342        -2.392016
 C         1.960547         2.513934        -3.506140
 C         2.646207         1.161912        -3.187152
 C         1.933613         0.210849        -2.155095
 C         1.466846         1.165492        -1.011109
 C         2.486379         2.311835        -0.979141
 C         1.330686         0.378607         0.373941
 O         0.326974         0.420026         1.018118
 H         4.189415         3.866808        -2.322087
 H         0.907643         2.486585        -3.128046
 H         2.091026         3.019134        -4.452467
 H         3.303793         0.585697        -3.925155
 H         1.102311        -0.415285        -2.509704
 H         2.771700        -0.331191        -1.725543
 H         0.477370         1.503922        -1.228541
 H         2.086681         3.203155        -0.546838
 H         3.277883         1.994599        -0.253185
 H         2.236042        -0.202951         0.693404
