19
Iteration:  1427
 O         4.319577         3.007267        -2.627513
 C         3.069614         2.335801        -2.334559
 C         1.946471         2.590868        -3.420356
 C         2.600619         1.267825        -3.220416
 C         1.765673         0.276561        -2.172719
 C         1.387605         1.224193        -1.043646
 C         2.672487         2.063545        -0.901199
 C         1.291152         0.400313         0.228660
 O         0.426605         0.257633         1.097496
 H         4.599003         3.360403        -1.782787
 H         0.855155         2.680026        -3.097903
 H         2.275993         3.456524        -4.148479
 H         3.108796         0.617757        -3.950965
 H         0.841532        -0.028083        -2.675152
 H         2.409816        -0.533050        -1.770309
 H         0.426682         1.728307        -1.125807
 H         2.425768         3.002332        -0.343034
 H         3.594504         1.686360        -0.423219
 H         2.235612        -0.110917         0.494274
