19
Iteration:  4879charge 0 multiplicity 1
 O         4.243264         2.916766        -2.405554
 C         3.023405         2.349496        -2.363629
 C         2.108772         2.377550        -3.574098
 C         2.714506         1.076599        -3.025218
 C         1.804264         0.207889        -2.236936
 C         1.358462         1.134450        -1.067411
 C         2.298527         2.327763        -1.017569
 C         1.425288         0.487157         0.296247
 O         0.513145         0.475744         1.090816
 H         4.315108         3.843891        -2.531019
 H         1.015283         2.632037        -3.519837
 H         2.605999         2.759636        -4.524424
 H         3.618168         0.800961        -3.670375
 H         0.993200        -0.135047        -2.826777
 H         2.448242        -0.508817        -1.827876
 H         0.367393         1.497796        -1.389230
 H         1.803054         3.221324        -0.681109
 H         3.067532         2.070389        -0.198972
 H         2.381290         0.013691         0.411141
