19
Iteration:  4768
 O         4.271514         3.029454        -2.492324
 C         3.102612         2.353858        -2.406907
 C         2.016860         2.398453        -3.426383
 C         2.725254         1.045760        -3.080266
 C         1.845805         0.147306        -2.230232
 C         1.403876         1.149333        -1.021866
 C         2.407056         2.265317        -0.992400
 C         1.326145         0.392197         0.291158
 O         0.426113         0.574756         1.052690
 H         4.001439         3.992438        -2.529738
 H         0.904341         2.316487        -3.053293
 H         2.391635         2.899569        -4.394914
 H         3.684615         0.683698        -3.672694
 H         1.080133        -0.347454        -2.885477
 H         2.525644        -0.596105        -1.702366
 H         0.392727         1.531319        -1.245318
 H         1.976825         3.231474        -0.775702
 H         3.354488         1.952817        -0.413567
 H         2.111809        -0.342096         0.446707
