19
Iteration:  1786charge 0 multiplicity 1
 O         4.368962         2.875446        -2.545756
 C         2.997894         2.417367        -2.372447
 C         1.979391         2.713184        -3.402841
 C         2.563623         1.279864        -3.149195
 C         1.819920         0.270961        -2.218637
 C         1.453188         1.099570        -0.940207
 C         2.629598         2.157451        -0.925656
 C         1.343497         0.419411         0.368632
 O         0.320117         0.267699         0.989060
 H         4.349854         3.277514        -3.459457
 H         0.855521         2.685611        -3.145720
 H         2.334120         3.143895        -4.345342
 H         3.249930         0.957707        -3.873935
 H         0.903450        -0.149141        -2.708282
 H         2.468159        -0.639613        -2.025118
 H         0.523334         1.603614        -1.141254
 H         2.329922         3.078809        -0.427835
 H         3.598792         1.654802        -0.499492
 H         2.428799        -0.188594         0.558721
