19
Iteration:   255charge 0 multiplicity 1
 O         4.293606         3.007762        -2.327887
 C         3.007150         2.413193        -2.345791
 C         2.015109         2.455745        -3.615865
 C         2.653575         1.176137        -3.114216
 C         1.835652         0.256510        -2.269982
 C         1.343098         1.065463        -1.056824
 C         2.443857         2.311743        -0.953338
 C         1.335855         0.301402         0.231453
 O         0.572250         0.471852         1.171024
 H         4.792335         2.564237        -3.019042
 H         0.850989         2.668670        -3.505343
 H         2.259769         3.033680        -4.590532
 H         3.353098         0.787826        -3.847492
 H         0.978686        -0.071768        -2.827554
 H         2.372273        -0.641205        -1.995736
 H         0.348458         1.406080        -1.207551
 H         1.814488         3.172617        -0.689243
 H         3.206058         2.128980        -0.189716
 H         2.080643        -0.465740         0.227701
