19
Iteration:  3694
 O         4.288623         3.052365        -2.433208
 C         3.075599         2.367615        -2.369675
 C         2.035372         2.402225        -3.518907
 C         2.665478         1.144844        -3.121700
 C         1.845333         0.152448        -2.248585
 C         1.453527         1.127866        -1.033849
 C         2.469123         2.237318        -0.995398
 C         1.306868         0.411617         0.306423
 O         0.382449         0.493772         1.130916
 H         4.252495         3.699337        -3.187336
 H         1.012230         2.586726        -3.247731
 H         2.369983         2.955951        -4.426445
 H         3.390842         0.621716        -3.825741
 H         0.985653        -0.369195        -2.755992
 H         2.454263        -0.589662        -1.746875
 H         0.513832         1.472045        -1.192451
 H         2.095786         3.233843        -0.789216
 H         3.429037         1.921189        -0.363000
 H         2.058727        -0.380811         0.496238
