19
Iteration:  4084charge 0 multiplicity 1
 O         4.335061         2.856311        -2.631583
 C         3.007203         2.418845        -2.407777
 C         2.141152         2.448421        -3.632385
 C         2.616389         1.161731        -3.065326
 C         1.879698         0.311253        -2.173498
 C         1.454986         1.273358        -0.866840
 C         2.480476         2.439387        -0.937712
 C         1.320797         0.456185         0.479853
 O         0.241846         0.104490         0.997331
 H         4.224843         3.683434        -3.073614
 H         1.100284         2.623988        -3.728005
 H         2.599389         2.675059        -4.628547
 H         3.267283         0.562600        -3.671617
 H         1.212578        -0.449267        -2.655985
 H         2.766441        -0.274362        -1.613356
 H         0.364211         1.515449        -0.999536
 H         2.170657         3.493599        -0.637844
 H         3.421364         2.374511        -0.295594
 H         2.341827         0.310253         1.030549
