19
Iteration:   341charge 0 multiplicity 1
 O         4.301527         2.982895        -2.549422
 C         2.992559         2.348768        -2.368951
 C         1.845454         2.539842        -3.420421
 C         2.495187         1.137153        -3.168049
 C         1.980040         0.232064        -2.133876
 C         1.518593         1.215030        -1.021133
 C         2.657733         2.195699        -0.929096
 C         1.344913         0.467265         0.283071
 O         0.326858         0.317271         0.921939
 H         4.497652         3.471678        -1.704310
 H         0.792844         2.642271        -2.958120
 H         2.293384         2.832653        -4.453376
 H         3.181872         0.768006        -3.922755
 H         1.179756        -0.435059        -2.367587
 H         2.823031        -0.330295        -1.623606
 H         0.622537         1.711812        -1.330143
 H         2.276485         3.133522        -0.524633
 H         3.519003         1.699473        -0.385262
 H         2.254303         0.083305         0.733063
