19
Iteration:  1950charge 0 multiplicity 1
 O         4.355558         2.830535        -2.448048
 C         3.061502         2.360370        -2.344662
 C         2.028314         2.560006        -3.391966
 C         2.580449         1.117865        -3.109119
 C         1.709075         0.206347        -2.212120
 C         1.307277         1.198255        -1.041690
 C         2.407588         2.329587        -0.930076
 C         1.428085         0.441175         0.135862
 O         0.587019         0.354016         1.014221
 H         4.487952         3.745402        -2.159840
 H         0.987269         2.897453        -3.156579
 H         2.561675         3.212366        -4.228283
 H         3.339684         0.760965        -3.823450
 H         0.839084        -0.176432        -2.810456
 H         2.234958        -0.732632        -1.845241
 H         0.277939         1.574834        -1.141676
 H         1.945658         3.269330        -0.787955
 H         3.146685         2.061657        -0.251544
 H         2.352750        -0.127298         0.206731
