19
Iteration:  3291charge 0 multiplicity 1
 O         4.298779         2.903627        -2.524465
 C         2.967512         2.351190        -2.341387
 C         1.959998         2.414793        -3.378202
 C         2.622277         1.085907        -3.102218
 C         1.922841         0.253059        -2.134685
 C         1.372738         1.145265        -1.026881
 C         2.527938         2.272194        -0.910157
 C         1.423865         0.519465         0.251648
 O         0.373578         0.401520         0.885661
 H         4.364368         3.846487        -2.564970
 H         0.920628         2.718852        -3.246486
 H         2.513084         3.019247        -4.175886
 H         3.212794         0.836778        -3.888568
 H         1.168976        -0.366520        -2.603452
 H         2.564083        -0.558496        -1.725963
 H         0.337780         1.602434        -1.172746
 H         2.170802         3.380193        -0.649510
 H         3.490290         1.956354        -0.402510
 H         2.444662         0.182432         0.683957
