19
Iteration:  1337charge 0 multiplicity 1
 O         4.363278         3.010130        -2.557597
 C         3.064367         2.428858        -2.375902
 C         2.039618         2.629138        -3.345584
 C         2.547396         1.148275        -3.115414
 C         1.831060         0.293551        -2.245732
 C         1.300103         1.161912        -1.058112
 C         2.454824         2.174813        -0.956887
 C         1.344638         0.424904         0.207891
 O         0.491593         0.250090         1.138450
 H         5.008888         2.232632        -2.615820
 H         1.018644         2.925442        -2.942045
 H         2.308559         3.115986        -4.264008
 H         2.945192         0.775193        -4.060266
 H         0.912387        -0.241899        -2.635435
 H         2.507058        -0.474115        -1.816381
 H         0.544689         1.835616        -1.353347
 H         2.095819         3.077866        -0.494029
 H         3.263548         1.730009        -0.320019
 H         2.249481        -0.262309         0.222010
