19
Iteration:  2129charge 0 multiplicity 1
 O         4.310922         2.866304        -2.630026
 C         3.047059         2.455346        -2.406979
 C         1.967185         2.493598        -3.520501
 C         2.563969         1.218804        -3.170943
 C         1.923013         0.329788        -2.092910
 C         1.494890         1.220001        -0.894056
 C         2.603446         2.341178        -0.992442
 C         1.315237         0.391040         0.432337
 O         0.254957         0.194878         0.932266
 H         4.663559         2.960033        -1.728679
 H         0.925637         2.524041        -3.483231
 H         2.279962         2.859483        -4.531812
 H         3.289467         0.800801        -3.843879
 H         0.928603        -0.229439        -2.437643
 H         2.870777        -0.194631        -1.798142
 H         0.508936         1.617607        -0.937868
 H         2.285386         3.246476        -0.425583
 H         3.457518         2.060392        -0.456747
 H         2.266096        -0.014803         0.876306
