19
Iteration:   751charge 0 multiplicity 1
 O         4.332399         3.065576        -2.668563
 C         3.115257         2.373320        -2.351324
 C         2.047036         2.569772        -3.272745
 C         2.600812         1.185589        -3.183866
 C         1.739137         0.228869        -2.271954
 C         1.452517         1.114643        -1.017341
 C         2.583625         2.159197        -0.952427
 C         1.289596         0.304799         0.336067
 O         0.365290         0.369850         1.063784
 H         4.203551         3.930132        -2.294323
 H         1.113319         2.669241        -2.954356
 H         2.337313         3.083375        -4.141509
 H         3.077928         0.617323        -3.974226
 H         0.761116        -0.226869        -2.658907
 H         2.529649        -0.546608        -2.099913
 H         0.559709         1.718724        -1.141655
 H         2.266502         3.137315        -0.506271
 H         3.443190         1.847729        -0.250833
 H         2.125942        -0.421205         0.590239
