19
Iteration:  1888
 O         4.226309         3.003059        -2.509819
 C         3.026961         2.458377        -2.377979
 C         2.142109         2.566266        -3.524578
 C         2.605595         1.226549        -3.132882
 C         1.756183         0.348687        -2.307726
 C         1.382937         1.099390        -0.989950
 C         2.559185         2.148095        -0.914508
 C         1.341741         0.314076         0.306667
 O         0.413395         0.367783         1.157984
 H         4.803656         2.586120        -3.139914
 H         1.127145         2.804634        -3.382587
 H         2.611415         2.915276        -4.402954
 H         3.332041         0.643813        -3.818274
 H         0.836005        -0.044445        -2.858464
 H         2.337046        -0.574264        -2.135970
 H         0.377528         1.518361        -0.985745
 H         2.292149         2.992353        -0.178061
 H         3.473027         1.617896        -0.316633
 H         2.306750        -0.309553         0.481088
