19
Iteration:  1502
 O         4.369896         2.917879        -2.560559
 C         3.057697         2.378846        -2.415518
 C         2.014547         2.717563        -3.358348
 C         2.512058         1.240668        -3.201898
 C         1.813543         0.329178        -2.269748
 C         1.441033         1.094613        -0.991316
 C         2.628038         2.200749        -0.926078
 C         1.325177         0.361094         0.392723
 O         0.341353         0.175753         1.079075
 H         4.402537         3.310365        -3.478511
 H         1.023040         3.109079        -2.975421
 H         2.510221         3.473283        -4.129764
 H         2.889105         0.572733        -4.008666
 H         0.787956        -0.125822        -2.493755
 H         2.496696        -0.418019        -2.137858
 H         0.474716         1.492240        -1.114479
 H         2.258249         3.216218        -0.788775
 H         3.468115         1.974465        -0.346330
 H         2.319973         0.024186         0.759058
