19
Iteration:  4955charge 0 multiplicity 1
 O         4.311850         2.930235        -2.526756
 C         3.092671         2.356965        -2.359094
 C         2.059851         2.279445        -3.514876
 C         2.693466         1.078016        -3.009212
 C         1.846345         0.255194        -2.170897
 C         1.354421         1.233912        -1.012444
 C         2.347086         2.390742        -0.970850
 C         1.439450         0.459914         0.312840
 O         0.408058         0.389455         0.984027
 H         4.100877         3.900429        -2.723795
 H         0.970619         2.391757        -3.233241
 H         2.393803         2.835202        -4.389227
 H         3.429484         0.704181        -3.721704
 H         0.910127        -0.069418        -2.520360
 H         2.488307        -0.602865        -1.746878
 H         0.396852         1.571377        -1.318507
 H         1.730675         3.226205        -0.811997
 H         3.114256         2.317522        -0.209134
 H         2.467269        -0.034190         0.388528
