19
Iteration:  2781
 O         4.421144         2.759962        -2.504854
 C         3.051586         2.373035        -2.391919
 C         2.006674         2.496461        -3.498300
 C         2.574757         1.055634        -3.062713
 C         1.723011         0.295900        -2.095659
 C         1.295670         1.396917        -1.057797
 C         2.519253         2.381620        -0.984347
 C         1.322742         0.745855         0.424191
 O         0.545089        -0.020691         0.861532
 H         4.333432         3.718129        -2.408504
 H         0.929503         2.690356        -3.343984
 H         2.375119         2.858143        -4.487991
 H         3.401016         0.580765        -3.614619
 H         0.829627        -0.187764        -2.696247
 H         2.361368        -0.401493        -1.463297
 H         0.304938         1.777034        -1.300667
 H         2.125488         3.334112        -0.765738
 H         3.125506         2.094892        -0.172287
 H         2.352928         0.752414         0.872778
