19
Iteration:  1113charge 0 multiplicity 1
 O         4.353865         2.921330        -2.593294
 C         2.995792         2.430200        -2.375336
 C         1.919894         2.621103        -3.383746
 C         2.624752         1.218586        -3.142546
 C         1.808630         0.316052        -2.188005
 C         1.509518         1.158858        -0.878251
 C         2.661937         2.170367        -0.873591
 C         1.359579         0.337775         0.346193
 O         0.309216         0.251575         0.884281
 H         4.277150         3.604158        -3.270428
 H         0.843700         2.792474        -3.233897
 H         2.258164         3.046860        -4.410120
 H         3.233452         0.603032        -3.734809
 H         0.933173        -0.103869        -2.778802
 H         2.311256        -0.536491        -1.879614
 H         0.504152         1.666323        -1.057901
 H         2.092610         3.022471        -0.441247
 H         3.596983         1.993297        -0.450305
 H         2.295804         0.113538         0.878534
