19
Iteration:  3561
 O         4.337543         2.900526        -2.554595
 C         3.055984         2.505681        -2.485760
 C         2.092284         2.440576        -3.705199
 C         2.611626         1.196928        -3.116723
 C         1.841832         0.225751        -2.084228
 C         1.413027         1.189884        -0.887325
 C         2.496687         2.337961        -0.972214
 C         1.345985         0.484279         0.486748
 O         0.268599         0.153002         1.029129
 H         4.502530         3.785063        -3.015299
 H         0.983805         2.867838        -3.616462
 H         2.708497         2.967114        -4.434111
 H         3.426385         0.662873        -3.650085
 H         0.968587        -0.164488        -2.668206
 H         2.538126        -0.495087        -1.752645
 H         0.480192         1.539142        -1.105693
 H         2.072583         3.156720        -0.361441
 H         3.570512         1.979671        -0.552613
 H         2.269291         0.271180         1.074864
