19
Iteration:   313charge 0 multiplicity 1
 O         4.211993         3.211367        -2.577180
 C         3.078294         2.355292        -2.381909
 C         2.019472         2.494953        -3.428606
 C         2.664111         1.068122        -3.144833
 C         1.819491         0.267564        -2.201622
 C         1.415376         1.179218        -1.033665
 C         2.625597         2.117197        -1.002234
 C         1.297841         0.396241         0.304034
 O         0.354618         0.358870         1.088734
 H         4.938351         2.906843        -1.950709
 H         1.012645         2.575545        -2.989084
 H         2.266801         2.873957        -4.414244
 H         3.291587         0.646595        -3.934673
 H         0.920967        -0.221532        -2.687542
 H         2.404727        -0.488540        -1.688827
 H         0.443051         1.693024        -1.226185
 H         2.413148         3.026163        -0.356034
 H         3.436077         1.610869        -0.445127
 H         2.272818        -0.267275         0.502299
