19
Iteration:  3549
 O         4.392887         2.929416        -2.555958
 C         2.981484         2.441534        -2.435286
 C         2.081056         2.507492        -3.669550
 C         2.672032         1.138975        -3.033441
 C         1.807131         0.330108        -2.076873
 C         1.409948         1.205692        -0.924806
 C         2.485538         2.252238        -1.030806
 C         1.346278         0.525709         0.498206
 O         0.314641         0.139474         0.967784
 H         4.398745         3.767985        -3.059054
 H         0.952118         2.531514        -3.539618
 H         2.364801         2.793826        -4.699798
 H         3.413254         0.592777        -3.549573
 H         0.932307        -0.200337        -2.533876
 H         2.371002        -0.522320        -1.736432
 H         0.476319         1.625611        -1.028722
 H         2.175584         3.274140        -0.675362
 H         3.346160         1.949555        -0.260743
 H         2.362160         0.266924         0.898860
