19
Iteration:   863
 O         4.378528         2.732617        -2.610038
 C         3.017044         2.482934        -2.331790
 C         2.027252         2.598071        -3.519550
 C         2.555195         1.258503        -3.071423
 C         1.768598         0.370361        -2.166521
 C         1.340752         1.180728        -0.963890
 C         2.481706         2.252047        -0.877571
 C         1.405734         0.475511         0.309618
 O         0.476355         0.131260         0.973485
 H         4.653184         3.661362        -2.724140
 H         0.978712         2.947545        -3.154766
 H         2.343324         2.889699        -4.515048
 H         3.373025         0.845560        -3.665216
 H         0.865390        -0.001705        -2.773072
 H         2.420978        -0.519419        -1.910894
 H         0.335642         1.736240        -1.213080
 H         1.965176         3.201808        -0.408261
 H         3.274826         1.904088        -0.112793
 H         2.473721         0.090033         0.448095
