19
Iteration:   916charge 0 multiplicity 1
 O         4.479228         2.957241        -2.550562
 C         3.135609         2.384222        -2.434555
 C         2.028777         2.543617        -3.467464
 C         2.488846         1.105842        -3.123121
 C         1.570124         0.375033        -2.165697
 C         1.383854         1.218569        -0.930452
 C         2.558990         2.429005        -1.025808
 C         1.439521         0.391846         0.386211
 O         0.406776         0.032845         0.968772
 H         4.612500         3.655878        -1.882406
 H         0.934563         2.787001        -3.228702
 H         2.378337         2.842894        -4.426244
 H         2.935965         0.521201        -3.943348
 H         0.621268         0.065803        -2.775761
 H         2.147274        -0.520778        -1.916974
 H         0.406000         1.788838        -0.971210
 H         2.228194         3.418387        -0.591551
 H         3.373606         2.156115        -0.307015
 H         2.439757         0.062489         0.810117
