19
Iteration:  1297charge 0 multiplicity 1
 O         4.255883         2.933728        -2.398923
 C         2.973002         2.466014        -2.364759
 C         2.051841         2.566064        -3.540843
 C         2.633719         1.247772        -3.182960
 C         1.685675         0.295804        -2.271761
 C         1.525140         1.135160        -0.956573
 C         2.535911         2.225501        -0.942645
 C         1.461840         0.345927         0.329169
 O         0.409836         0.310708         1.059110
 H         4.588000         2.478271        -3.149412
 H         1.055328         2.923673        -3.094717
 H         2.546661         3.104493        -4.323435
 H         3.070141         0.755465        -4.012624
 H         0.758857         0.131248        -2.779400
 H         2.095735        -0.810772        -2.187518
 H         0.455489         1.384121        -1.000722
 H         2.001716         3.114039        -0.540003
 H         3.517669         1.934780        -0.470456
 H         2.369602        -0.298114         0.503846
