19
Iteration:  3716
 O         4.222716         2.961990        -2.432109
 C         3.011742         2.324321        -2.304235
 C         2.005887         2.411189        -3.387106
 C         2.810912         1.048823        -3.133344
 C         1.870275         0.257496        -2.188039
 C         1.332577         1.155039        -1.074017
 C         2.416945         2.293829        -0.873106
 C         1.362988         0.400490         0.132382
 O         0.497387         0.566079         1.004794
 H         4.280329         3.412149        -3.270591
 H         0.959739         2.309683        -3.184047
 H         2.188420         2.842427        -4.377997
 H         3.340362         0.623597        -4.023776
 H         0.915903        -0.206703        -2.585335
 H         2.403608        -0.602741        -1.741273
 H         0.390096         1.487657        -1.213358
 H         2.015282         3.246007        -0.539593
 H         3.451739         1.917624        -0.344291
 H         2.315428        -0.154863         0.388472
