19
Iteration:   972
 O         4.410594         2.825548        -2.512080
 C         3.072246         2.442239        -2.390231
 C         2.012103         2.554179        -3.519530
 C         2.458495         1.167859        -3.159167
 C         1.724773         0.293689        -2.124368
 C         1.405032         1.381820        -0.818656
 C         2.543425         2.363328        -0.887935
 C         1.395799         0.423044         0.254022
 O         0.415664         0.035607         0.918765
 H         4.558829         3.588678        -3.054583
 H         0.990933         2.951685        -3.256523
 H         2.335270         3.059871        -4.518592
 H         3.264747         0.875081        -3.739401
 H         0.867530        -0.402701        -2.535378
 H         2.416653        -0.514833        -1.856889
 H         0.414496         1.954748        -1.017344
 H         2.244377         3.350603        -0.395590
 H         3.421161         1.810605        -0.517881
 H         2.438550         0.029326         0.471436
