19
Iteration:  1778charge 0 multiplicity 1
 O         4.361025         2.932083        -2.530809
 C         3.057679         2.444874        -2.373453
 C         1.996658         2.603283        -3.361001
 C         2.476560         1.209340        -3.154596
 C         1.757112         0.284991        -2.228716
 C         1.486200         1.153604        -0.997286
 C         2.639005         2.180731        -0.938314
 C         1.362831         0.357619         0.323278
 O         0.341629         0.268867         0.971522
 H         4.560030         3.146423        -3.476501
 H         1.055065         2.933286        -2.950609
 H         2.271664         3.205196        -4.257310
 H         3.231075         0.880116        -3.828699
 H         0.855358        -0.196364        -2.675417
 H         2.465564        -0.413344        -1.820462
 H         0.572394         1.700883        -1.139539
 H         2.250199         2.988590        -0.280202
 H         3.424199         1.764171        -0.331994
 H         2.272711        -0.031883         0.803465
