19
Iteration:  3580charge 0 multiplicity 1
 O         4.309587         2.897498        -2.570599
 C         2.978206         2.355228        -2.374276
 C         2.104019         2.579440        -3.607719
 C         2.581543         1.100119        -3.128197
 C         1.926129         0.258958        -2.137415
 C         1.491887         1.209176        -0.986984
 C         2.513223         2.347595        -0.931338
 C         1.320759         0.511705         0.425158
 O         0.277788         0.199841         1.037006
 H         4.278254         3.862622        -2.728362
 H         1.036461         2.615192        -3.581680
 H         2.537921         2.619222        -4.593151
 H         3.280266         0.560389        -3.654670
 H         1.045595        -0.257919        -2.540183
 H         2.703003        -0.480867        -1.803585
 H         0.453777         1.632574        -1.057863
 H         2.091709         3.397492        -0.846510
 H         3.405707         2.126568        -0.287739
 H         2.290521         0.023825         0.855913
