19
Iteration:    22charge 0 multiplicity 1
 O         4.376492         2.786900        -2.421793
 C         2.909481         2.411454        -2.341834
 C         1.901295         2.456802        -3.556724
 C         2.614294         1.171719        -3.088820
 C         1.998472         0.233551        -2.063710
 C         1.313135         1.200147        -1.051642
 C         2.366855         2.356217        -0.943268
 C         1.415165         0.465697         0.204582
 O         0.509955         0.378658         0.964771
 H         4.535586         3.431639        -3.168438
 H         0.846056         2.629435        -3.430949
 H         2.271904         2.891669        -4.469845
 H         3.445201         0.864833        -3.696784
 H         1.400226        -0.624575        -2.345901
 H         2.855548        -0.128392        -1.512252
 H         0.259826         1.543981        -1.192590
 H         2.048002         3.316197        -0.546156
 H         3.144448         1.931800        -0.306640
 H         2.300642        -0.046325         0.415596
