19
Iteration:  1896
 O         4.285320         3.016739        -2.454505
 C         3.016693         2.453276        -2.407668
 C         2.152782         2.633282        -3.572295
 C         2.570857         1.232549        -3.078035
 C         1.706362         0.281691        -2.297745
 C         1.431096         1.132991        -1.056953
 C         2.529420         2.145418        -0.956954
 C         1.304860         0.283165         0.381453
 O         0.433090         0.343638         1.191686
 H         4.592558         2.672783        -3.294785
 H         1.054416         2.740321        -3.606520
 H         2.670081         2.890451        -4.584756
 H         3.302910         0.718228        -3.676810
 H         0.873040        -0.004938        -3.002416
 H         2.447864        -0.567747        -2.134999
 H         0.472285         1.590855        -1.091825
 H         2.341907         3.049353        -0.387973
 H         3.465304         1.636923        -0.548297
 H         2.250127        -0.421011         0.740810
