19
Iteration:  2968charge 0 multiplicity 1
 O         4.291561         2.923007        -2.562573
 C         3.021747         2.405983        -2.339615
 C         1.974705         2.577742        -3.488947
 C         2.636192         1.178556        -3.140696
 C         2.072063         0.245405        -2.210338
 C         1.478327         1.101888        -0.964394
 C         2.499536         2.249468        -0.887530
 C         1.237378         0.323522         0.311797
 O         0.289633         0.466298         1.057039
 H         4.264302         3.093881        -3.555415
 H         0.864841         2.479617        -3.511099
 H         2.392257         2.674736        -4.476484
 H         3.421644         0.905040        -3.793150
 H         1.210826        -0.445872        -2.435559
 H         2.945794        -0.342427        -1.824247
 H         0.540398         1.524198        -1.259106
 H         2.037537         3.157018        -0.565131
 H         3.362544         2.053535        -0.153992
 H         2.131358        -0.302727         0.640149
