19
Iteration:  4175charge 0 multiplicity 1
 O         4.394574         2.911802        -2.573376
 C         2.989291         2.430231        -2.404719
 C         2.175608         2.401726        -3.668921
 C         2.602348         1.118715        -3.041026
 C         1.792884         0.335626        -2.133278
 C         1.373213         1.159607        -0.980176
 C         2.383533         2.387119        -1.033268
 C         1.359070         0.395314         0.323125
 O         0.395516         0.246927         1.121215
 H         4.477616         3.870230        -2.330505
 H         1.187334         2.768688        -3.542102
 H         2.505930         2.867904        -4.577759
 H         3.502900         0.682937        -3.453178
 H         0.903116        -0.241512        -2.382965
 H         2.517420        -0.519792        -1.702345
 H         0.381896         1.637089        -1.102831
 H         1.764515         3.232379        -0.703110
 H         3.181506         2.235997        -0.169037
 H         2.340923         0.186060         0.786748
