19
Iteration:  4579
 O         4.347465         2.909174        -2.614211
 C         2.977880         2.405743        -2.404206
 C         2.069105         2.344110        -3.620100
 C         2.592378         1.094991        -3.007100
 C         1.804941         0.234809        -2.052003
 C         1.480689         1.314305        -0.911310
 C         2.500269         2.373008        -0.896750
 C         1.335723         0.592609         0.366730
 O         0.348134         0.142575         0.903189
 H         4.162301         3.852784        -2.657843
 H         1.134290         2.786160        -3.449125
 H         2.661629         2.547535        -4.509935
 H         3.530503         0.518886        -3.496276
 H         0.884483        -0.047483        -2.532917
 H         2.464002        -0.589656        -1.789205
 H         0.517040         1.846063        -1.126278
 H         2.161865         3.472791        -0.894713
 H         3.433423         2.179912        -0.311020
 H         2.300166         0.287284         0.771629
