19
Iteration:  2828
 O         4.431733         2.752766        -2.620880
 C         3.081005         2.455957        -2.437393
 C         2.098072         2.434806        -3.630625
 C         2.541248         1.156101        -3.039065
 C         1.763871         0.313973        -1.957480
 C         1.468615         1.339521        -0.762029
 C         2.417893         2.548714        -1.047698
 C         1.378488         0.517183         0.390116
 O         0.325668        -0.057819         0.816856
 H         4.474066         3.747309        -2.650022
 H         1.176459         2.931495        -3.224362
 H         2.518860         2.846211        -4.597905
 H         3.115141         0.465011        -3.715543
 H         0.820491        -0.087848        -2.257883
 H         2.397708        -0.420938        -1.464107
 H         0.452956         1.738251        -0.830105
 H         1.859142         3.441239        -0.874802
 H         3.261635         2.628409        -0.363193
 H         2.332786         0.382771         0.975107
