19
Iteration:   352charge 0 multiplicity 1
 O         4.295596         2.861013        -2.601438
 C         2.988811         2.462431        -2.392712
 C         1.919216         2.536901        -3.404749
 C         2.518116         1.220103        -3.122547
 C         1.957445         0.241671        -2.109401
 C         1.562313         1.102938        -1.005498
 C         2.598761         2.236411        -0.898576
 C         1.406616         0.478901         0.389919
 O         0.274872         0.302803         0.840474
 H         4.379943         3.691070        -2.113602
 H         0.819109         2.815590        -3.144790
 H         1.884106         2.986772        -4.470977
 H         3.136289         0.738795        -3.864309
 H         1.214792        -0.476796        -2.385131
 H         2.888428        -0.377487        -1.869126
 H         0.604091         1.538298        -1.224414
 H         2.218475         3.149862        -0.422004
 H         3.527288         1.987881        -0.294636
 H         2.295885        -0.022694         0.810361
