19
Iteration:  1242
 O         4.387036         2.962057        -2.516094
 C         3.053896         2.301494        -2.359545
 C         2.076287         2.619536        -3.382580
 C         2.567410         1.164136        -3.101370
 C         1.767349         0.276647        -2.288010
 C         1.339642         1.274290        -1.074724
 C         2.535469         2.265247        -0.945281
 C         1.285567         0.402934         0.237409
 O         0.477305         0.162739         1.146303
 H         4.055702         3.585913        -3.177508
 H         1.021151         2.985403        -3.139055
 H         2.343472         2.929184        -4.401759
 H         2.971932         0.554934        -3.832245
 H         0.902278        -0.057469        -2.746978
 H         2.511231        -0.501320        -1.796663
 H         0.303575         1.624717        -1.348439
 H         2.441907         3.282999        -0.517225
 H         3.268497         1.942120        -0.121574
 H         2.364484         0.007139         0.308952
