19
Iteration:  2156charge 0 multiplicity 1
 O         4.261395         3.031662        -2.735816
 C         3.112182         2.405664        -2.334725
 C         2.004515         2.514655        -3.349291
 C         2.591779         1.112920        -3.044375
 C         1.881512         0.151712        -2.076544
 C         1.464738         1.192960        -0.979893
 C         2.565320         2.283797        -0.910423
 C         1.324509         0.551820         0.275744
 O         0.283787         0.229533         0.872941
 H         5.007721         2.471303        -2.410535
 H         0.951063         2.821354        -2.972925
 H         2.191628         2.980849        -4.292883
 H         3.330292         0.768519        -3.816179
 H         0.924399        -0.131459        -2.404660
 H         2.652867        -0.582576        -1.812926
 H         0.415292         1.563486        -1.261344
 H         2.273535         3.174805        -0.371583
 H         3.440424         1.891336        -0.264811
 H         2.262663         0.312377         0.768619
