19
Iteration:  2178
 O         4.274664         3.191603        -2.657813
 C         3.154777         2.259409        -2.346687
 C         1.933494         2.431336        -3.339721
 C         2.643956         1.046916        -3.138986
 C         1.858393         0.221243        -2.145283
 C         1.436471         1.231421        -0.958440
 C         2.647558         2.220848        -0.913625
 C         1.314694         0.544623         0.358154
 O         0.241000         0.236559         0.873066
 H         4.909491         2.598979        -3.110382
 H         0.998394         2.912259        -2.958788
 H         2.293935         3.046663        -4.151827
 H         3.040610         0.440668        -3.985276
 H         1.005771        -0.237400        -2.474516
 H         2.615910        -0.427457        -1.649892
 H         0.471973         1.834107        -1.011864
 H         2.359555         3.225621        -0.679836
 H         3.419429         2.005011        -0.123010
 H         2.269696         0.292353         0.841531
