19
Iteration:   636charge 0 multiplicity 1
 O         4.279894         3.027586        -2.376235
 C         3.058822         2.374248        -2.350914
 C         1.950294         2.451343        -3.440599
 C         2.533760         1.101748        -3.160885
 C         1.717691         0.346949        -2.223914
 C         1.509132         1.196518        -0.942294
 C         2.648824         2.256434        -0.968844
 C         1.387743         0.287775         0.257341
 O         0.436209         0.330198         0.957455
 H         4.576739         3.271055        -3.233131
 H         0.887612         2.858231        -3.045505
 H         2.323506         2.744387        -4.479677
 H         3.088482         0.669539        -4.026884
 H         0.727063         0.211485        -2.591292
 H         2.157659        -0.612997        -1.954073
 H         0.562465         1.731300        -1.111129
 H         2.242584         3.236139        -0.644481
 H         3.518943         2.362856        -0.361885
 H         2.299628        -0.369698         0.452328
