19
Iteration:  3787
 O         4.262676         2.953697        -2.324503
 C         3.002593         2.386576        -2.430302
 C         2.152812         2.527318        -3.715790
 C         2.638217         1.117037        -3.211564
 C         1.831479         0.166346        -2.201864
 C         1.456352         1.037688        -1.004436
 C         2.438467         2.301015        -1.007125
 C         1.274023         0.409192         0.343989
 O         0.452451         0.462866         1.238110
 H         4.337112         3.735173        -2.916583
 H         1.073230         2.724866        -3.718033
 H         2.634198         2.965876        -4.654768
 H         3.294853         0.662661        -4.030110
 H         1.008664        -0.245688        -2.746382
 H         2.544076        -0.645073        -1.956611
 H         0.401814         1.587201        -1.211330
 H         1.734490         3.160643        -0.761400
 H         3.240146         2.102834        -0.238582
 H         2.278432        -0.046962         0.692432
