19
Iteration:  4678
 O         4.312523         2.938965        -2.610514
 C         3.029180         2.388472        -2.440500
 C         1.938654         2.444881        -3.429342
 C         2.663085         1.064201        -3.117667
 C         1.976172         0.185081        -2.055080
 C         1.489477         1.160925        -0.997767
 C         2.559500         2.368672        -1.000173
 C         1.300877         0.450085         0.334170
 O         0.253053         0.393788         0.982601
 H         4.300609         3.867042        -2.266915
 H         0.939226         2.744219        -3.223204
 H         2.412095         2.767146        -4.330536
 H         3.300231         0.615453        -3.788261
 H         1.127333        -0.396516        -2.374801
 H         2.756446        -0.535607        -1.785434
 H         0.555022         1.640136        -1.275564
 H         1.899078         3.155670        -0.579794
 H         3.419316         2.117205        -0.323911
 H         2.269180        -0.038771         0.797706
