19
Iteration:  1359charge 0 multiplicity 1
 O         4.296733         2.907595        -2.545847
 C         3.027988         2.390998        -2.335536
 C         1.946906         2.604802        -3.447392
 C         2.571491         1.244970        -3.143905
 C         1.778441         0.242241        -2.223587
 C         1.355373         1.157568        -0.999196
 C         2.606797         2.282825        -0.902231
 C         1.378661         0.300043         0.202402
 O         0.487223         0.339076         1.030812
 H         4.860345         2.600205        -1.847443
 H         0.943658         2.934555        -2.996532
 H         2.181021         3.218277        -4.293865
 H         3.191210         1.038179        -3.999558
 H         0.853814        -0.253067        -2.650758
 H         2.493229        -0.486985        -1.926850
 H         0.423298         1.646210        -1.197937
 H         2.411447         3.252738        -0.469066
 H         3.333392         1.764633        -0.255777
 H         2.291729        -0.332390         0.400354
