19
Iteration:  1796charge 0 multiplicity 1
 O         4.322057         2.805474        -2.565030
 C         3.016212         2.415276        -2.317947
 C         1.917760         2.768294        -3.470025
 C         2.645864         1.279251        -3.183040
 C         1.908461         0.257808        -2.262401
 C         1.464249         1.135399        -0.940307
 C         2.598001         2.148266        -0.897321
 C         1.328368         0.388532         0.364508
 O         0.307090         0.279361         1.043125
 H         4.307212         3.568647        -3.200359
 H         0.730539         3.026783        -3.445209
 H         2.243834         3.159989        -4.437672
 H         3.175081         0.806735        -3.966014
 H         0.909751        -0.031278        -2.651735
 H         2.563294        -0.689463        -2.182902
 H         0.445007         1.530267        -1.073345
 H         2.609080         3.069912        -0.330075
 H         3.621380         1.682146        -0.428061
 H         2.294097        -0.190872         0.884016
