19
Iteration:  3686
 O         4.317060         3.067426        -2.451352
 C         3.035982         2.424475        -2.369363
 C         2.100844         2.450987        -3.550290
 C         2.663041         1.090027        -3.164427
 C         1.841197         0.112766        -2.230559
 C         1.450052         1.071399        -1.026895
 C         2.493604         2.298892        -0.992647
 C         1.260169         0.400667         0.360072
 O         0.366748         0.476869         1.152988
 H         4.240455         3.776980        -3.126028
 H         1.056930         2.652686        -3.399828
 H         2.423138         2.663224        -4.540704
 H         3.149603         0.789313        -4.044834
 H         0.931465        -0.376628        -2.538866
 H         2.561683        -0.683895        -2.048210
 H         0.437008         1.509361        -1.223711
 H         2.156435         3.133102        -0.340556
 H         3.401020         1.987808        -0.492058
 H         2.079332        -0.334507         0.563570
