19
Iteration:  3870charge 0 multiplicity 1
 O         4.388217         2.994565        -2.532176
 C         3.007337         2.408824        -2.491515
 C         2.118973         2.453535        -3.733904
 C         2.662396         1.112688        -3.149849
 C         1.828008         0.291419        -2.053678
 C         1.390439         1.144723        -0.927585
 C         2.375699         2.272393        -0.955021
 C         1.390854         0.431229         0.418345
 O         0.332642         0.327474         1.066570
 H         4.254926         3.895681        -2.149579
 H         1.133902         2.809299        -3.554460
 H         2.576291         2.695662        -4.702564
 H         3.396750         0.474475        -3.606576
 H         0.957940        -0.190176        -2.599285
 H         2.485147        -0.565871        -1.839900
 H         0.392014         1.411774        -0.931954
 H         1.959791         3.113336        -0.443868
 H         3.213697         2.001468        -0.389701
 H         2.326702        -0.165137         0.717320
