19
Iteration:  3047charge 0 multiplicity 1
 O         4.156090         2.996727        -2.421092
 C         2.956502         2.405452        -2.386517
 C         2.171168         2.507954        -3.677562
 C         2.782295         1.164069        -3.094611
 C         1.842735         0.195499        -2.340178
 C         1.384238         0.978131        -1.087183
 C         2.439853         2.157459        -0.944042
 C         1.336120         0.352613         0.437228
 O         0.455357         0.604695         1.195807
 H         4.033650         3.857114        -2.921716
 H         1.173591         2.797671        -3.604957
 H         2.757908         2.961175        -4.455243
 H         3.641683         0.837518        -3.725778
 H         0.932222        -0.045813        -2.910070
 H         2.278208        -0.800353        -1.957330
 H         0.412293         1.412637        -1.215878
 H         2.072614         2.927698        -0.309008
 H         3.415196         1.768419        -0.437397
 H         2.057769        -0.456359         0.601251
