19
Iteration:  1856
 O         4.270807         2.998934        -2.530358
 C         3.109652         2.374939        -2.318038
 C         1.946845         2.514230        -3.285168
 C         2.561221         1.143547        -3.125434
 C         1.758086         0.270906        -2.283347
 C         1.430480         1.169080        -1.031363
 C         2.632740         2.245109        -0.947866
 C         1.334648         0.376368         0.170006
 O         0.457056         0.389082         1.000932
 H         5.028414         2.741812        -1.947678
 H         0.983213         2.652976        -2.884622
 H         2.067916         2.963384        -4.232755
 H         3.174198         0.673930        -3.972908
 H         0.810988        -0.151972        -2.648280
 H         2.343102        -0.554622        -1.919911
 H         0.478635         1.689025        -1.188279
 H         2.144882         3.151968        -0.511048
 H         3.388655         1.817703        -0.256234
 H         2.166390        -0.305133         0.216254
