19
Iteration:  4388
 O         4.353690         2.973065        -2.540307
 C         2.986127         2.374623        -2.374758
 C         2.043158         2.488407        -3.632237
 C         2.617927         1.162881        -3.209186
 C         1.967409         0.226030        -2.200821
 C         1.439783         1.034681        -1.005514
 C         2.469669         2.208069        -0.882873
 C         1.320499         0.452246         0.435633
 O         0.284004         0.439109         1.124492
 H         4.403957         3.958095        -2.668535
 H         0.921186         2.637307        -3.830842
 H         2.422797         3.010756        -4.558818
 H         3.367042         0.637100        -3.828779
 H         1.095150        -0.200164        -2.724602
 H         2.764536        -0.422322        -1.884941
 H         0.497258         1.507038        -1.224162
 H         2.134813         3.208785        -0.477264
 H         3.298347         1.876537        -0.191297
 H         2.267762        -0.162977         0.818869
