19
Iteration:   203
 O         4.286424         2.810836        -2.189501
 C         2.938682         2.427269        -2.308856
 C         2.110386         2.571807        -3.560775
 C         2.572409         1.118243        -3.215567
 C         1.829925         0.183963        -2.372191
 C         1.310507         1.076524        -1.107330
 C         2.199009         2.287719        -0.997881
 C         1.506677         0.441163         0.252371
 O         0.676575         0.506677         1.149997
 H         4.487758         3.274698        -2.999083
 H         1.022127         2.939829        -3.469232
 H         2.728252         2.964473        -4.440695
 H         3.362062         0.822374        -3.862000
 H         0.921225        -0.411123        -2.726796
 H         2.648331        -0.520003        -2.064903
 H         0.233472         1.255636        -1.216650
 H         1.584824         3.220509        -0.843808
 H         2.910783         2.021161        -0.194751
 H         2.602396         0.081591         0.522942
