19
Iteration:  2689charge 0 multiplicity 1
 O         4.355135         2.895880        -2.615314
 C         3.109756         2.343931        -2.378861
 C         1.994657         2.350757        -3.435904
 C         2.561017         1.015255        -2.998867
 C         1.799473         0.302050        -2.002534
 C         1.290275         1.430924        -0.947295
 C         2.601150         2.475219        -0.906764
 C         1.342012         0.516390         0.197939
 O         0.409309         0.098309         0.814272
 H         4.489456         3.867543        -2.608477
 H         1.101099         2.805809        -3.103121
 H         2.285250         2.739026        -4.451524
 H         3.157573         0.287870        -3.631158
 H         0.890963        -0.066690        -2.506356
 H         2.414105        -0.487161        -1.441000
 H         0.273603         1.873009        -1.005580
 H         2.485314         3.579601        -0.625290
 H         3.403943         2.045947        -0.294171
 H         2.402100         0.229873         0.474863
