19
Iteration:  1867
 O         4.317189         3.069129        -2.533284
 C         3.040111         2.310938        -2.333523
 C         1.941102         2.560832        -3.397107
 C         2.612755         1.178739        -3.165242
 C         1.721260         0.246842        -2.230193
 C         1.446762         1.232469        -1.066801
 C         2.561288         2.163394        -0.860561
 C         1.370426         0.323471         0.216395
 O         0.447108         0.393191         1.042405
 H         4.968736         2.329067        -2.367280
 H         0.912429         2.446928        -3.298900
 H         2.316299         3.228760        -4.111911
 H         3.353607         0.688127        -3.903420
 H         0.849393        -0.085617        -2.825096
 H         2.271013        -0.635140        -1.960865
 H         0.482528         1.747316        -1.112915
 H         2.301025         3.198087        -0.487911
 H         3.343774         1.806425        -0.101354
 H         2.162176        -0.300903         0.400874
