19
Iteration:  2469
 O         4.392553         2.891576        -2.412050
 C         2.961687         2.418548        -2.301393
 C         1.984450         2.430685        -3.512226
 C         2.650947         1.159388        -3.071621
 C         1.835443         0.217712        -2.208232
 C         1.351667         1.087708        -1.077310
 C         2.385122         2.325340        -0.874628
 C         1.372726         0.421379         0.177274
 O         0.526599         0.495979         1.038500
 H         4.533895         3.154976        -3.348352
 H         0.920236         2.356129        -3.304136
 H         2.295388         2.805639        -4.541928
 H         3.205289         0.587070        -3.762475
 H         0.943958        -0.242787        -2.791389
 H         2.446357        -0.672695        -1.822825
 H         0.437236         1.653259        -1.227742
 H         1.844462         3.287431        -0.652790
 H         3.275475         2.183061        -0.265656
 H         2.407811        -0.027452         0.456725
