19
Iteration:  2395
 O         4.263632         2.953665        -2.323859
 C         2.985068         2.435966        -2.411193
 C         2.105442         2.431514        -3.544863
 C         2.693859         1.096230        -3.085406
 C         1.726115         0.246509        -2.168526
 C         1.303315         1.152676        -1.037108
 C         2.440112         2.268775        -1.022614
 C         1.407342         0.478767         0.224741
 O         0.556236         0.402395         1.063024
 H         4.733785         3.115947        -3.166730
 H         1.040182         2.474844        -3.554563
 H         2.574461         2.719517        -4.492252
 H         3.368126         0.540400        -3.710337
 H         0.688189         0.017196        -2.586217
 H         2.096105        -0.645618        -1.813591
 H         0.273456         1.515895        -1.037008
 H         2.001817         3.248420        -0.621558
 H         3.345464         2.075661        -0.321453
 H         2.343994        -0.069660         0.361143
