19
Iteration:  2316charge 0 multiplicity 1
 O         4.278671         2.816400        -2.482211
 C         2.910841         2.504460        -2.411100
 C         2.118402         2.450338        -3.693309
 C         2.587830         1.098205        -3.207737
 C         1.882672         0.253390        -2.169039
 C         1.423936         1.269945        -0.960198
 C         2.497776         2.363955        -0.964487
 C         1.379687         0.395409         0.372906
 O         0.389460         0.284409         1.101093
 H         4.330425         3.506757        -1.789981
 H         1.153005         3.007031        -3.801174
 H         2.798824         2.960417        -4.400653
 H         3.310876         0.488268        -3.775988
 H         0.968248        -0.332363        -2.562857
 H         2.540394        -0.388877        -1.728898
 H         0.399795         1.633207        -0.975554
 H         1.807478         3.220972        -0.577705
 H         3.413853         2.227479        -0.230608
 H         2.484301         0.037134         0.667108
