19
Iteration:  1467charge 0 multiplicity 1
 O         4.400001         2.870312        -2.602078
 C         3.045929         2.456898        -2.384563
 C         1.884316         2.642917        -3.435327
 C         2.503915         1.219711        -3.097483
 C         1.778708         0.310167        -2.181983
 C         1.484942         1.096939        -0.927281
 C         2.633772         2.216174        -0.861965
 C         1.418371         0.278805         0.243754
 O         0.355664         0.321288         0.959064
 H         4.439136         3.875816        -2.505021
 H         0.880420         2.855716        -3.025424
 H         2.253675         3.219352        -4.307840
 H         3.060218         0.751116        -3.889034
 H         0.824984        -0.100907        -2.661971
 H         2.374662        -0.596692        -2.016631
 H         0.596878         1.657173        -1.072846
 H         2.221940         3.075558        -0.342269
 H         3.444219         1.897064        -0.209930
 H         2.331613        -0.355816         0.386986
