19
Iteration:  1144
 O         4.339582         2.928599        -2.667308
 C         3.056636         2.394088        -2.370572
 C         1.980023         2.665481        -3.305343
 C         2.612344         1.145108        -3.171513
 C         1.848025         0.256694        -2.164478
 C         1.415892         1.218104        -1.029898
 C         2.618382         2.186510        -0.910429
 C         1.275419         0.445572         0.257284
 O         0.332131         0.162733         1.052190
 H         4.462899         3.888906        -2.462786
 H         0.944923         2.804556        -3.025494
 H         2.280708         3.239462        -4.248500
 H         3.214960         0.698068        -3.929637
 H         1.018724        -0.177525        -2.682573
 H         2.526990        -0.541774        -1.772654
 H         0.482681         1.812317        -1.307493
 H         2.289029         3.076658        -0.304333
 H         3.523629         1.789381        -0.340222
 H         2.339333         0.208123         0.583903
