19
Iteration:  1118charge 0 multiplicity 1
 O         4.338843         2.909210        -2.621121
 C         3.028272         2.408369        -2.332096
 C         1.922819         2.588083        -3.396980
 C         2.585719         1.237988        -3.125562
 C         1.829161         0.328206        -2.249976
 C         1.469571         1.167942        -0.896295
 C         2.654302         2.176336        -0.865564
 C         1.358881         0.385116         0.351840
 O         0.300287         0.232081         0.910562
 H         4.333292         3.652509        -3.247147
 H         0.857993         2.770226        -3.209829
 H         2.222056         2.945178        -4.321099
 H         3.458674         0.812294        -3.787015
 H         0.984886        -0.079647        -2.834014
 H         2.509847        -0.584885        -1.949663
 H         0.525892         1.668074        -0.966953
 H         2.256254         3.093225        -0.414439
 H         3.590057         1.877608        -0.222441
 H         2.361607         0.083128         0.829132
