19
Iteration:   786charge 0 multiplicity 1
 O         4.271098         2.885943        -2.524633
 C         2.894470         2.514512        -2.289915
 C         2.016849         2.490728        -3.549733
 C         2.578670         1.243343        -3.112965
 C         1.743298         0.341955        -2.280493
 C         1.519073         1.193097        -0.991513
 C         2.685246         2.095860        -0.888740
 C         1.338219         0.421407         0.299955
 O         0.407912         0.299644         1.044678
 H         4.462360         3.801004        -2.397227
 H         0.917819         2.347419        -3.502086
 H         2.294277         3.118442        -4.421334
 H         3.415723         0.844909        -3.732059
 H         0.892326        -0.225905        -2.779250
 H         2.441302        -0.466652        -1.928679
 H         0.551447         1.850484        -1.153313
 H         2.503379         2.895876        -0.091337
 H         3.520659         1.393937        -0.658927
 H         2.336904        -0.130532         0.440465
