19
Iteration:  3003charge 0 multiplicity 1
 O         4.278975         3.095000        -2.318050
 C         3.031361         2.339798        -2.397843
 C         1.946737         2.492095        -3.329844
 C         2.679714         1.061693        -3.109030
 C         1.897689         0.119941        -2.169585
 C         1.416291         1.144475        -1.120218
 C         2.524064         2.153734        -1.064905
 C         1.332299         0.411520         0.197112
 O         0.428309         0.581683         1.023995
 H         4.276306         3.688202        -3.123682
 H         0.911806         2.518683        -3.169576
 H         2.029397         2.498836        -4.372884
 H         3.235233         0.655767        -3.908733
 H         1.078834        -0.342330        -2.762179
 H         2.508569        -0.753037        -1.759963
 H         0.472011         1.572963        -1.267922
 H         2.174833         3.070986        -0.719472
 H         3.319876         1.779813        -0.416453
 H         2.256969        -0.172952         0.481998
