19
Iteration:  2335
 O         4.407505         2.910322        -2.481478
 C         3.071564         2.371711        -2.422391
 C         2.114370         2.512643        -3.674048
 C         2.610989         1.151366        -3.084744
 C         1.774999         0.297984        -2.141412
 C         1.366560         1.132112        -0.962115
 C         2.336516         2.384577        -1.050835
 C         1.376029         0.387311         0.357356
 O         0.421320         0.290051         1.129810
 H         4.349618         3.872214        -2.243807
 H         0.991189         2.746252        -3.538080
 H         2.467532         2.668337        -4.672189
 H         3.315277         0.559413        -3.720253
 H         0.917223        -0.195599        -2.516921
 H         2.494552        -0.515187        -1.805829
 H         0.321012         1.516018        -0.995107
 H         2.025507         3.401989        -0.779640
 H         3.261245         2.103013        -0.515124
 H         2.302070        -0.209101         0.490448
