19
Iteration:  3095
 O         4.269251         2.944643        -2.417132
 C         3.021561         2.300144        -2.370063
 C         2.064811         2.421035        -3.457772
 C         2.689858         1.072059        -3.082529
 C         1.967061         0.193696        -2.192014
 C         1.322685         1.198473        -1.028013
 C         2.278420         2.373607        -1.050019
 C         1.222449         0.329933         0.070053
 O         0.658670         0.530392         1.171301
 H         4.231352         3.735903        -1.893779
 H         0.925172         2.513646        -3.166867
 H         2.374952         2.913600        -4.391456
 H         3.496525         0.609347        -3.664339
 H         1.194051        -0.323760        -2.786892
 H         2.543147        -0.608432        -1.658794
 H         0.323521         1.620603        -1.486743
 H         1.883268         3.460361        -0.993350
 H         3.004816         2.321358        -0.338386
 H         1.898578        -0.499268        -0.020977
