19
Iteration:  2679charge 0 multiplicity 1
 O         4.322561         2.887979        -2.638274
 C         3.119767         2.282701        -2.407619
 C         2.030532         2.414471        -3.373854
 C         2.603693         1.022278        -3.089526
 C         1.756132         0.356190        -1.977069
 C         1.405516         1.442382        -1.010007
 C         2.540280         2.420032        -0.932290
 C         1.380725         0.538002         0.306664
 O         0.358017         0.102536         0.842323
 H         4.190135         3.788270        -2.220923
 H         1.091104         2.709741        -3.058871
 H         2.355187         2.596636        -4.405028
 H         3.233364         0.615256        -3.899063
 H         0.945527        -0.369149        -2.342647
 H         2.477560        -0.443986        -1.588549
 H         0.455628         1.940563        -1.285716
 H         2.167734         3.419133        -0.603679
 H         3.313069         2.134689        -0.280051
 H         2.357266         0.047120         0.547922
