19
Iteration:  4147
 O         4.282237         2.851918        -2.467263
 C         2.925553         2.327880        -2.364882
 C         2.027659         2.372493        -3.521983
 C         2.742245         1.013432        -3.019756
 C         1.844791         0.261347        -2.171826
 C         1.387558         1.356893        -0.951039
 C         2.436871         2.403426        -0.961907
 C         1.403470         0.573107         0.249488
 O         0.480905         0.260776         0.913737
 H         4.319390         3.800090        -2.341397
 H         0.923031         2.377265        -3.468554
 H         2.385152         2.947663        -4.465406
 H         3.411960         0.615305        -3.720227
 H         0.840946        -0.057875        -2.462313
 H         2.246288        -0.696239        -1.883502
 H         0.424335         1.804181        -1.140686
 H         1.942789         3.322126        -0.664278
 H         3.181221         2.134205        -0.308136
 H         2.417123         0.247858         0.546595
