19
Iteration:  3441
 O         4.427671         2.868844        -2.574267
 C         3.041244         2.419077        -2.411456
 C         2.128095         2.547914        -3.582146
 C         2.549444         1.133387        -3.135463
 C         1.784393         0.234339        -2.063172
 C         1.426955         1.222716        -0.876082
 C         2.399531         2.348946        -1.083884
 C         1.348584         0.656325         0.539946
 O         0.357894         0.024409         0.903659
 H         4.375416         3.801360        -2.707419
 H         1.037289         2.774026        -3.650928
 H         2.693053         2.799142        -4.564993
 H         3.305232         0.714214        -3.715531
 H         0.940645        -0.324246        -2.529055
 H         2.533083        -0.441102        -1.640941
 H         0.466224         1.720852        -0.872437
 H         2.004699         3.207100        -0.666484
 H         3.214065         2.057789        -0.436853
 H         2.237868         0.640501         1.190318
