19
Iteration:   269
 O         4.183012         3.020824        -2.461758
 C         2.949487         2.418614        -2.369144
 C         2.074965         2.485316        -3.578191
 C         2.753196         1.198749        -3.118784
 C         1.771964         0.314728        -2.285636
 C         1.476284         1.067910        -0.965094
 C         2.412113         2.238212        -0.923951
 C         1.338492         0.191311         0.292996
 O         0.507865         0.507388         1.100618
 H         4.793798         2.529323        -3.076500
 H         0.987569         2.500526        -3.336662
 H         2.729595         3.034455        -4.293668
 H         3.633995         0.661548        -3.433196
 H         0.802204         0.129317        -2.841783
 H         2.275764        -0.638425        -2.124117
 H         0.491748         1.589804        -1.050342
 H         1.997265         3.230769        -0.563811
 H         3.346913         2.047709        -0.347256
 H         2.080934        -0.494316         0.559133
