19
Iteration:  1470
 O         4.426498         2.877763        -2.604861
 C         3.030195         2.445454        -2.409715
 C         1.888580         2.674443        -3.428048
 C         2.514545         1.221244        -3.091028
 C         1.771757         0.288111        -2.234929
 C         1.502268         1.103655        -0.937999
 C         2.613177         2.199007        -0.842935
 C         1.425105         0.268115         0.289209
 O         0.334651         0.313264         0.973534
 H         4.357953         3.868841        -2.646025
 H         0.881747         2.920829        -2.954900
 H         2.270695         3.206904        -4.445619
 H         3.118519         0.687372        -3.874170
 H         0.768550        -0.104496        -2.570517
 H         2.426824        -0.485097        -2.044543
 H         0.551587         1.631822        -1.008612
 H         2.270960         3.160200        -0.402332
 H         3.418433         2.029739        -0.169916
 H         2.326959        -0.371497         0.413417
