19
Iteration:  4414charge 0 multiplicity 1
 O         4.303871         2.914898        -2.511926
 C         2.943133         2.427438        -2.433887
 C         2.034556         2.443812        -3.575221
 C         2.692719         1.108497        -3.045123
 C         1.892804         0.257500        -2.138733
 C         1.439010         1.157021        -0.956111
 C         2.500090         2.302000        -1.016674
 C         1.316570         0.378253         0.310801
 O         0.352446         0.391772         1.057082
 H         4.393708         3.907524        -2.444702
 H         1.011422         2.665010        -3.504480
 H         2.424510         2.849512        -4.488017
 H         3.463773         0.619789        -3.629446
 H         1.081587        -0.146114        -2.723113
 H         2.508576        -0.575634        -1.736916
 H         0.479895         1.758241        -1.085842
 H         2.184265         3.316247        -0.641289
 H         3.415181         2.059888        -0.479820
 H         2.220427        -0.249909         0.606332
