19
Iteration:  3783
 O         4.272349         2.975313        -2.305763
 C         2.976997         2.356063        -2.438008
 C         2.151253         2.543154        -3.715868
 C         2.623639         1.097554        -3.260445
 C         1.839050         0.193327        -2.237663
 C         1.445870         1.033689        -0.987571
 C         2.465858         2.291264        -1.032723
 C         1.256740         0.394090         0.366850
 O         0.443458         0.464762         1.263307
 H         4.324904         3.701399        -2.929160
 H         1.080019         2.719262        -3.750262
 H         2.652612         2.893702        -4.571005
 H         3.383395         0.785336        -3.902544
 H         1.039667        -0.370968        -2.777194
 H         2.515427        -0.589779        -1.884781
 H         0.587189         1.506497        -1.164831
 H         1.855385         3.205262        -0.866920
 H         3.254240         2.240842        -0.159885
 H         2.254917        -0.033899         0.701263
