19
Iteration:   232
 O         4.313020         2.961943        -2.212011
 C         3.033089         2.374643        -2.380207
 C         2.072756         2.540928        -3.465708
 C         2.568735         1.087674        -3.182244
 C         1.865546         0.192291        -2.236807
 C         1.212981         1.145657        -1.158785
 C         2.299111         2.282327        -1.104798
 C         1.342540         0.389124         0.182458
 O         0.699582         0.451171         1.195328
 H         4.866785         2.836947        -3.001406
 H         1.039413         2.994878        -3.166845
 H         2.260217         3.127405        -4.386507
 H         3.272038         0.691836        -3.928876
 H         1.125865        -0.507313        -2.512783
 H         2.661783        -0.401904        -1.807368
 H         0.212200         1.351857        -1.428720
 H         1.937516         3.283222        -0.853943
 H         2.924831         1.937480        -0.289271
 H         2.281130        -0.062133         0.145827
