19
Iteration:   474
 O         4.367862         2.974658        -2.608795
 C         3.123531         2.387699        -2.426725
 C         2.077006         2.553460        -3.486427
 C         2.539043         1.071967        -3.064058
 C         1.625046         0.353722        -2.155804
 C         1.459140         1.281065        -0.909423
 C         2.543087         2.418666        -0.998768
 C         1.393718         0.477340         0.502136
 O         0.378671        -0.074648         0.898059
 H         4.526311         3.217594        -3.554508
 H         1.066144         3.067474        -3.293361
 H         2.558022         2.678556        -4.462323
 H         3.283036         0.511463        -3.610191
 H         0.662112         0.224912        -2.644018
 H         2.005719        -0.618622        -1.687528
 H         0.453510         1.656454        -0.914445
 H         2.273269         3.393408        -0.615456
 H         3.365187         2.282855        -0.230354
 H         2.252835         0.652138         1.182713
