19
Iteration:  4044
 O         4.319281         2.925279        -2.601233
 C         3.073542         2.368423        -2.393479
 C         1.937609         2.368223        -3.405410
 C         2.591027         1.036878        -3.007590
 C         1.913971         0.189555        -2.049556
 C         1.407277         1.342101        -0.949799
 C         2.556475         2.407439        -1.030580
 C         1.373282         0.559822         0.284893
 O         0.321670         0.201214         0.815266
 H         4.401144         3.803074        -2.110511
 H         0.975695         2.724885        -2.968395
 H         2.383287         2.559455        -4.341521
 H         3.355054         0.655245        -3.828117
 H         1.023598        -0.375875        -2.472600
 H         2.626465        -0.422110        -1.553210
 H         0.423139         1.864042        -1.192328
 H         2.155407         3.344315        -0.635206
 H         3.326340         2.163972        -0.216356
 H         2.348386         0.389127         0.831318
