19
Iteration:  1195
 O         4.263077         2.809917        -2.508130
 C         2.988846         2.408997        -2.355720
 C         1.946632         2.562375        -3.524249
 C         2.550585         1.272741        -3.148335
 C         1.753217         0.278282        -2.215261
 C         1.561161         1.187804        -0.942145
 C         2.621268         2.320115        -0.935894
 C         1.421570         0.350789         0.351578
 O         0.370343         0.251217         0.958055
 H         4.618781         3.434743        -1.800512
 H         0.940053         2.811425        -3.428642
 H         2.452782         3.018684        -4.357731
 H         3.381946         0.914028        -3.806913
 H         0.816007        -0.021812        -2.715151
 H         2.520704        -0.532782        -2.099202
 H         0.650265         1.644726        -1.129700
 H         2.047611         3.127445        -0.545942
 H         3.499183         2.327244        -0.254019
 H         2.328751        -0.274917         0.510209
