19
Iteration:  3181
 O         4.235248         3.085292        -2.262427
 C         3.066421         2.330199        -2.381561
 C         2.010620         2.406182        -3.485361
 C         2.732604         1.092095        -3.161069
 C         1.796164         0.186361        -2.303399
 C         1.370780         1.005902        -1.178978
 C         2.381335         2.071579        -0.976747
 C         1.359353         0.399124         0.275468
 O         0.572141         0.718496         1.105052
 H         4.231219         4.027868        -2.578713
 H         0.891550         2.467832        -3.323500
 H         2.395481         2.966758        -4.337688
 H         3.246477         0.540870        -3.921005
 H         0.961628        -0.086123        -2.942375
 H         2.366200        -0.717600        -1.926620
 H         0.332949         1.434484        -1.187917
 H         2.114235         3.135763        -0.569789
 H         3.263281         1.764423        -0.358027
 H         2.193057        -0.272644         0.546947
