19
Iteration:  4516
 O         4.327652         2.824128        -2.523292
 C         3.048368         2.388965        -2.504629
 C         2.100467         2.531847        -3.635550
 C         2.587371         1.026350        -3.054591
 C         1.857957         0.277147        -2.019532
 C         1.358861         1.263807        -0.875269
 C         2.436547         2.469288        -1.015665
 C         1.375751         0.513773         0.406385
 O         0.378294         0.147092         0.952687
 H         4.386535         3.755463        -2.708650
 H         1.118479         2.966479        -3.414389
 H         2.582724         2.722322        -4.655833
 H         3.438910         0.547347        -3.739466
 H         0.987516        -0.299359        -2.372834
 H         2.569297        -0.529332        -1.741464
 H         0.406457         1.711127        -1.264722
 H         1.933086         3.350631        -0.734264
 H         3.306076         2.338226        -0.358778
 H         2.304705         0.239793         0.840555
