19
Iteration:  2347
 O         4.421219         2.919899        -2.496974
 C         3.073231         2.377835        -2.420851
 C         2.080603         2.494667        -3.593720
 C         2.693923         1.083447        -3.033795
 C         1.753879         0.227653        -2.175834
 C         1.339777         1.231406        -0.998408
 C         2.344597         2.344163        -1.027722
 C         1.352206         0.398992         0.279762
 O         0.477645         0.304111         1.137944
 H         4.154667         3.814973        -2.792473
 H         1.155812         2.977271        -3.127638
 H         2.377365         2.927960        -4.557699
 H         3.417819         0.548149        -3.704403
 H         0.904468        -0.063126        -2.799309
 H         2.221379        -0.678689        -1.747318
 H         0.297306         1.570334        -1.180730
 H         1.641202         3.185644        -0.734858
 H         3.006173         2.321823        -0.124907
 H         2.309943        -0.084384         0.498893
