19
Iteration:  1590charge 0 multiplicity 1
 O         4.425469         2.906496        -2.662489
 C         3.132786         2.412159        -2.404062
 C         2.143397         2.693324        -3.511956
 C         2.541432         1.262567        -3.039087
 C         1.533525         0.365638        -2.118026
 C         1.408468         1.260214        -0.821150
 C         2.624849         2.261588        -0.961014
 C         1.340526         0.358839         0.383043
 O         0.382110        -0.053803         0.979209
 H         4.361067         3.392365        -3.537593
 H         1.051142         2.889235        -3.203009
 H         2.326084         3.011627        -4.641659
 H         3.209415         0.851911        -3.834309
 H         0.496229         0.222056        -2.609280
 H         2.064231        -0.557673        -1.974248
 H         0.449996         1.686000        -1.017108
 H         2.209738         3.270401        -0.782177
 H         3.281095         2.149467        -0.158843
 H         2.452226         0.062900         0.696735
