19
Iteration:   201
 O         4.293176         2.806175        -2.186714
 C         2.924734         2.441793        -2.311291
 C         2.123841         2.554588        -3.570196
 C         2.561946         1.129583        -3.218563
 C         1.823776         0.176995        -2.371960
 C         1.320692         1.072684        -1.112899
 C         2.197415         2.305835        -1.009589
 C         1.504933         0.425273         0.260741
 O         0.671859         0.510066         1.153354
 H         4.457959         3.318452        -3.012839
 H         0.991329         2.923731        -3.395448
 H         2.765400         2.989925        -4.413594
 H         3.423488         0.820516        -3.808919
 H         0.914510        -0.326505        -2.719438
 H         2.593563        -0.551312        -2.117299
 H         0.280364         1.192239        -1.206736
 H         1.593385         3.213889        -0.785831
 H         2.913355         2.035467        -0.249112
 H         2.657792         0.052198         0.597086
