19
Iteration:  4130
 O         4.329121         2.928917        -2.478526
 C         3.087809         2.330310        -2.354462
 C         2.040739         2.303311        -3.497415
 C         2.659212         1.085760        -3.056830
 C         1.719043         0.299857        -2.087003
 C         1.335113         1.241543        -1.095932
 C         2.480172         2.425579        -1.000217
 C         1.405451         0.574982         0.337862
 O         0.432853         0.204861         0.922031
 H         4.211653         3.885808        -2.601022
 H         0.997175         2.582534        -3.275307
 H         2.170930         2.676555        -4.448063
 H         3.489862         0.545242        -3.720640
 H         0.943108        -0.261557        -2.663147
 H         2.487860        -0.576100        -1.791672
 H         0.330075         1.818004        -1.112426
 H         2.138704         3.453456        -0.622384
 H         3.292956         2.209348        -0.130477
 H         2.532324         0.389484         0.648463
