19
Iteration:  2685
 O         4.325405         2.893786        -2.619512
 C         3.134259         2.313612        -2.401835
 C         2.010672         2.369272        -3.404424
 C         2.574136         1.006399        -3.046049
 C         1.783644         0.323772        -1.979461
 C         1.318869         1.441917        -0.992154
 C         2.568204         2.471475        -0.902635
 C         1.339956         0.512549         0.254280
 O         0.407858         0.107181         0.813509
 H         4.436643         3.851640        -2.459330
 H         1.024134         2.867622        -2.995729
 H         2.335559         2.626473        -4.434703
 H         3.221905         0.379041        -3.727616
 H         0.984245        -0.198593        -2.449373
 H         2.415265        -0.447438        -1.591245
 H         0.348297         1.929536        -1.099391
 H         2.393993         3.535688        -0.598755
 H         3.489179         2.049081        -0.266606
 H         2.374954         0.120934         0.509596
