19
Iteration:  4498
 O         4.380208         2.840541        -2.476674
 C         2.962832         2.399245        -2.416832
 C         2.113273         2.425146        -3.720715
 C         2.600945         1.187499        -3.162556
 C         1.815942         0.318503        -2.053738
 C         1.426844         1.218371        -0.898533
 C         2.406989         2.372046        -1.031326
 C         1.394904         0.517939         0.495326
 O         0.343413         0.168982         0.972848
 H         4.362861         3.731707        -2.813466
 H         1.059836         2.615328        -3.755651
 H         2.662621         2.813578        -4.648503
 H         3.212458         0.686642        -3.754806
 H         0.976334        -0.325805        -2.431442
 H         2.592578        -0.415219        -1.658873
 H         0.430585         1.604418        -0.872162
 H         2.205456         3.455410        -0.770421
 H         3.277230         2.120032        -0.380425
 H         2.492728         0.295029         0.942659
