19
Iteration:  2878
 O         4.362267         2.965941        -2.601305
 C         3.032938         2.391204        -2.374778
 C         2.060910         2.431622        -3.515369
 C         2.633550         1.075511        -3.007247
 C         1.753862         0.346162        -2.061722
 C         1.408205         1.348850        -0.997164
 C         2.540253         2.327192        -0.895875
 C         1.349045         0.541482         0.408444
 O         0.355025         0.057726         0.850109
 H         4.322732         3.344903        -3.486275
 H         0.983096         2.519059        -3.439542
 H         2.365833         2.582868        -4.594285
 H         3.388547         0.367047        -3.483207
 H         0.675934         0.197424        -2.431752
 H         2.258510        -0.524630        -1.600158
 H         0.450071         1.840914        -1.348246
 H         2.403215         3.363851        -0.434010
 H         3.477306         1.905273        -0.394105
 H         2.368284         0.482574         0.888058
