19
Iteration:  2302
 O         4.237871         2.820552        -2.519400
 C         2.922052         2.328579        -2.397454
 C         2.102233         2.548102        -3.670581
 C         2.614580         1.156627        -3.127882
 C         1.860723         0.267293        -2.124348
 C         1.471383         1.175841        -0.963701
 C         2.439138         2.363400        -0.918485
 C         1.348438         0.538573         0.348635
 O         0.424533         0.276165         1.025798
 H         4.556702         3.391210        -1.800894
 H         0.968433         2.621797        -3.689387
 H         2.637886         2.834022        -4.543757
 H         3.501159         0.793988        -3.677540
 H         1.035258        -0.291697        -2.442954
 H         2.620314        -0.460453        -1.840008
 H         0.516984         1.605543        -1.352553
 H         2.195882         3.343314        -0.483443
 H         3.381050         2.009176        -0.391388
 H         2.392000         0.069104         0.696357
