19
Iteration:  1859
 O         4.279160         3.009177        -2.523999
 C         3.097964         2.366228        -2.327246
 C         1.944699         2.525916        -3.302322
 C         2.571663         1.151150        -3.131525
 C         1.743467         0.265092        -2.278327
 C         1.446706         1.189860        -1.044373
 C         2.631792         2.229572        -0.929847
 C         1.323487         0.371203         0.187472
 O         0.459765         0.390899         1.005033
 H         5.067223         2.686734        -2.058276
 H         0.866633         2.527027        -2.990515
 H         2.129261         3.049316        -4.211760
 H         3.183834         0.661882        -3.899485
 H         0.851136        -0.176230        -2.669110
 H         2.315547        -0.607468        -1.937711
 H         0.431441         1.707215        -1.163947
 H         2.172568         3.121344        -0.515376
 H         3.264959         1.841458        -0.229125
 H         2.293773        -0.381309         0.222881
