19
Iteration:  1158charge 0 multiplicity 1
 O         4.374678         2.963259        -2.641635
 C         3.105508         2.364992        -2.390493
 C         1.965281         2.616307        -3.391856
 C         2.541476         1.260208        -3.084020
 C         1.824021         0.290659        -2.145164
 C         1.365048         1.175966        -0.958845
 C         2.619006         2.152210        -0.985810
 C         1.362459         0.390312         0.297897
 O         0.353687         0.218457         0.968188
 H         4.328831         3.592206        -1.880537
 H         0.964012         3.037889        -3.053424
 H         2.312361         2.903268        -4.402353
 H         3.117498         0.829081        -3.916923
 H         1.005714        -0.439747        -2.494983
 H         2.496774        -0.365159        -1.713795
 H         0.349011         1.712625        -1.056174
 H         2.279560         3.197714        -0.781764
 H         3.320042         1.790489        -0.304970
 H         2.295886        -0.169162         0.604218
