19
Iteration:  2502charge 0 multiplicity 1
 O         4.298352         2.967229        -2.359345
 C         3.042201         2.302404        -2.412508
 C         2.056168         2.531109        -3.503988
 C         2.621789         1.061957        -3.152810
 C         1.887943         0.177089        -2.222983
 C         1.356670         1.163392        -1.074650
 C         2.499397         2.228057        -0.974049
 C         1.342533         0.450316         0.243610
 O         0.436982         0.479520         1.127581
 H         4.197738         3.787955        -2.904994
 H         0.975470         2.533305        -3.186493
 H         2.149314         2.918038        -4.529870
 H         3.043373         0.621848        -4.017585
 H         0.928914        -0.375241        -2.562771
 H         2.613834        -0.631906        -1.774866
 H         0.365105         1.607758        -1.164139
 H         2.073019         3.237970        -0.690078
 H         3.429981         2.145167        -0.465035
 H         2.297488         0.045085         0.516326
