19
Iteration:  3647charge 0 multiplicity 1
 O         4.248091         2.921456        -2.546250
 C         2.991084         2.397413        -2.391717
 C         2.074518         2.481968        -3.508574
 C         2.679074         1.088718        -3.208874
 C         1.921413         0.254229        -2.204586
 C         1.406380         1.160739        -0.960071
 C         2.517028         2.299322        -0.921354
 C         1.340348         0.394008         0.395586
 O         0.340372         0.445456         1.038898
 H         4.078070         3.890656        -2.387295
 H         0.949383         2.400259        -3.461699
 H         2.449671         2.903684        -4.443265
 H         3.496821         0.595727        -3.746080
 H         1.130367        -0.372736        -2.688741
 H         2.669736        -0.484619        -1.792649
 H         0.440451         1.573419        -1.246233
 H         2.105222         3.176572        -0.366617
 H         3.358581         1.719984        -0.418292
 H         2.259867        -0.176977         0.597415
