19
Iteration:   861charge 0 multiplicity 1
 O         4.382264         2.727402        -2.614952
 C         3.025927         2.475420        -2.341851
 C         2.015934         2.620737        -3.508190
 C         2.579526         1.268862        -3.064158
 C         1.776372         0.357774        -2.168292
 C         1.331848         1.177575        -0.979291
 C         2.477850         2.263862        -0.873649
 C         1.414858         0.483431         0.314194
 O         0.460985         0.124629         0.989485
 H         4.596188         3.699729        -2.778179
 H         1.033020         2.924141        -3.151856
 H         2.282528         2.886753        -4.510718
 H         3.385685         0.759630        -3.702128
 H         0.859734         0.012866        -2.788360
 H         2.365370        -0.558022        -1.933659
 H         0.381053         1.715730        -1.185236
 H         1.931805         3.164297        -0.438469
 H         3.266831         1.917056        -0.124591
 H         2.456205         0.069460         0.409345
