19
Iteration:   979
 O         4.475152         2.884441        -2.440674
 C         3.072695         2.428913        -2.453971
 C         1.998737         2.570501        -3.527935
 C         2.359882         1.176486        -3.112777
 C         1.740714         0.313216        -2.097281
 C         1.479524         1.347277        -0.843925
 C         2.546309         2.330813        -0.981761
 C         1.347249         0.388299         0.275728
 O         0.412851         0.046918         0.910463
 H         4.481752         3.621312        -3.043959
 H         1.051065         3.013239        -3.172054
 H         2.216211         2.776949        -4.520455
 H         3.076361         0.590968        -3.812811
 H         0.788520        -0.132000        -2.439314
 H         2.487312        -0.425039        -1.791915
 H         0.491156         1.682740        -1.032726
 H         2.319405         3.246941        -0.502775
 H         3.465178         1.990826        -0.475755
 H         2.391064         0.064630         0.513977
