19
Iteration:  3423charge 0 multiplicity 1
 O         4.382761         2.869658        -2.531088
 C         3.123603         2.343612        -2.447369
 C         2.009399         2.469411        -3.493690
 C         2.581726         1.079402        -3.013151
 C         1.803163         0.260221        -2.061275
 C         1.369050         1.241638        -1.021695
 C         2.494875         2.423777        -0.964007
 C         1.327318         0.666082         0.361180
 O         0.407887         0.042738         0.894891
 H         4.392555         3.797492        -2.663802
 H         1.071328         2.931012        -3.085327
 H         2.308205         2.756500        -4.489486
 H         3.088077         0.604150        -3.872045
 H         0.926429        -0.255715        -2.439939
 H         2.464783        -0.635334        -1.835769
 H         0.325548         1.667434        -1.361693
 H         2.040430         3.470724        -0.645106
 H         3.324819         2.276672        -0.228789
 H         2.416645         0.968986         0.812099
