19
Iteration:  4379charge 0 multiplicity 1
 O         4.330212         2.973527        -2.548143
 C         2.989962         2.375043        -2.386562
 C         2.013073         2.514154        -3.555778
 C         2.663218         1.139952        -3.136740
 C         1.956739         0.189426        -2.232590
 C         1.436567         1.052550        -0.969805
 C         2.494670         2.174618        -0.961211
 C         1.268440         0.424465         0.395743
 O         0.315813         0.473842         1.112637
 H         4.220251         3.960679        -2.660152
 H         0.994519         2.836063        -3.461961
 H         2.771759         2.963821        -4.280336
 H         3.277464         0.783087        -3.846488
 H         1.191139        -0.471393        -2.662849
 H         2.691154        -0.542554        -1.951855
 H         0.529121         1.500911        -1.413077
 H         1.909782         3.092905        -0.583288
 H         3.420030         2.041094        -0.373300
 H         2.296396         0.241207         0.703662
