19
Iteration:  3761charge 0 multiplicity 1
 O         4.260094         3.013160        -2.347432
 C         3.059667         2.370940        -2.418871
 C         2.158527         2.481189        -3.625663
 C         2.667987         1.096321        -3.234620
 C         1.880155         0.221479        -2.268532
 C         1.354863         1.120245        -1.033898
 C         2.351514         2.259907        -1.080619
 C         1.350912         0.355336         0.471828
 O         0.429803         0.503849         1.215103
 H         4.432548         3.537538        -3.165235
 H         1.120181         2.755721        -3.410940
 H         2.522402         2.972660        -4.475747
 H         3.183675         0.679179        -4.051021
 H         1.100754        -0.328636        -2.856745
 H         2.590816        -0.552060        -1.970619
 H         0.394153         1.411972        -1.100677
 H         1.987177         3.195207        -0.591281
 H         3.123547         1.676458        -0.344763
 H         2.138558        -0.467207         0.717302
