19
Iteration:  2597charge 0 multiplicity 1
 O         4.340614         2.959905        -2.562259
 C         3.106266         2.350055        -2.414179
 C         2.042135         2.456924        -3.373079
 C         2.548575         1.127820        -3.089054
 C         1.885703         0.200648        -2.074548
 C         1.391212         1.219377        -0.953206
 C         2.533950         2.225147        -1.016118
 C         1.349968         0.500869         0.260206
 O         0.325996         0.343674         0.966909
 H         4.151212         3.898589        -2.745799
 H         0.964935         2.714634        -3.149471
 H         2.322403         2.933256        -4.322962
 H         3.070384         0.592963        -3.824103
 H         1.112512        -0.337923        -2.534504
 H         2.715307        -0.431051        -1.899434
 H         0.484831         1.644963        -1.372430
 H         2.090427         3.168540        -0.636480
 H         3.318990         1.926026        -0.231679
 H         2.325077         0.068324         0.496596
