19
Iteration:  4671charge 0 multiplicity 1
 O         4.294826         2.920957        -2.639030
 C         3.021479         2.355474        -2.379469
 C         1.947226         2.492969        -3.441787
 C         2.700953         1.023089        -3.041560
 C         1.983837         0.199758        -2.073357
 C         1.489926         1.192306        -0.979499
 C         2.523342         2.350171        -0.996740
 C         1.310327         0.437935         0.323925
 O         0.281139         0.398864         0.935314
 H         4.256002         3.874638        -2.356919
 H         0.877341         2.658951        -2.990248
 H         2.296254         2.843225        -4.433455
 H         3.268077         0.690877        -3.947791
 H         1.050332        -0.282265        -2.435080
 H         2.688316        -0.474837        -1.614911
 H         0.479881         1.539026        -1.301734
 H         2.035766         3.285958        -0.757257
 H         3.315211         1.996453        -0.287040
 H         2.306416         0.135721         0.772408
