19
Iteration:   413charge 0 multiplicity 1
 O         4.338747         3.075589        -2.606974
 C         3.099328         2.376086        -2.433780
 C         1.943487         2.563919        -3.405036
 C         2.574598         1.086220        -3.093275
 C         1.792773         0.299108        -1.960334
 C         1.430498         1.351887        -0.947361
 C         2.678049         2.303195        -0.977720
 C         1.365050         0.471269         0.372238
 O         0.285622         0.039607         0.866181
 H         4.613972         2.887387        -3.538925
 H         0.989282         2.844810        -3.230284
 H         2.290875         2.769072        -4.379037
 H         3.134807         0.456681        -3.857170
 H         0.933302        -0.326792        -2.373721
 H         2.467414        -0.441540        -1.547569
 H         0.427624         1.762869        -1.283838
 H         2.402102         3.221712        -0.399327
 H         3.403510         1.658413        -0.462204
 H         2.254209        -0.083013         0.601960
