19
Iteration:  4593
 O         4.315855         2.968982        -2.576506
 C         3.072169         2.381261        -2.429562
 C         2.113162         2.391307        -3.712390
 C         2.580162         1.061776        -3.110439
 C         1.796434         0.289192        -2.000435
 C         1.448098         1.261513        -0.878067
 C         2.573644         2.412464        -0.944090
 C         1.344434         0.507837         0.459979
 O         0.281746         0.155583         0.922965
 H         4.268367         3.927593        -2.749949
 H         1.048383         2.588220        -3.812191
 H         2.620488         2.670796        -4.689319
 H         3.115091         0.483811        -3.795310
 H         0.891620        -0.233759        -2.302222
 H         2.453060        -0.450257        -1.601477
 H         0.440463         1.659453        -1.099836
 H         2.151346         3.161903        -0.433009
 H         3.412345         2.166125        -0.280082
 H         2.412700         0.370727         0.930875
