19
Iteration:  2172
 O         4.274450         3.169240        -2.690340
 C         3.133471         2.292274        -2.294752
 C         1.967211         2.451186        -3.282378
 C         2.610369         1.066149        -3.120443
 C         1.860646         0.209515        -2.149795
 C         1.440638         1.228279        -1.024560
 C         2.638584         2.239147        -0.926374
 C         1.333199         0.537157         0.374056
 O         0.246279         0.237116         0.864632
 H         4.962032         2.597284        -3.023210
 H         1.007430         2.756718        -2.938909
 H         2.424633         2.882027        -4.213327
 H         2.936706         0.448009        -3.942514
 H         0.950421        -0.407851        -2.556897
 H         2.528261        -0.410568        -1.534395
 H         0.585502         1.841658        -1.149482
 H         2.230293         3.270328        -0.698686
 H         3.351517         1.913988        -0.118822
 H         2.389828         0.336130         0.803541
