19
Iteration:  1617charge 0 multiplicity 1
 O         4.384728         2.727304        -2.618961
 C         3.021681         2.428975        -2.356342
 C         2.040376         2.603417        -3.501978
 C         2.504660         1.234399        -3.154103
 C         1.610385         0.442999        -2.124086
 C         1.455026         1.380020        -0.956234
 C         2.581186         2.337758        -0.883990
 C         1.426798         0.370843         0.367094
 O         0.430663        -0.048412         0.914832
 H         4.597429         3.695691        -2.449392
 H         1.032484         2.850486        -3.356892
 H         2.451032         2.982584        -4.353911
 H         3.146349         0.925545        -3.955393
 H         0.692663         0.021720        -2.420150
 H         2.319112        -0.318015        -1.753375
 H         0.391998         1.754464        -1.074342
 H         2.397354         3.375058        -0.512416
 H         3.312321         1.854341        -0.129046
 H         2.447815         0.401714         0.911501
