19
Iteration:  4792
 O         4.256217         2.957059        -2.451114
 C         3.025360         2.481898        -2.415477
 C         2.091775         2.380613        -3.631993
 C         2.656509         1.140277        -3.143217
 C         1.941686         0.186411        -2.192169
 C         1.402050         1.077131        -1.017996
 C         2.401948         2.238840        -0.930195
 C         1.281997         0.383803         0.310263
 O         0.438041         0.555033         1.172071
 H         4.259281         3.949921        -2.425301
 H         0.967698         2.565679        -3.662465
 H         2.795319         2.793832        -4.468690
 H         3.347338         0.529959        -3.905646
 H         1.042730        -0.356237        -2.662602
 H         2.657583        -0.585203        -1.982477
 H         0.424122         1.440216        -1.417576
 H         1.858863         3.097579        -0.580836
 H         3.327267         2.001623        -0.323465
 H         2.110108        -0.282543         0.487319
