19
Iteration:  4304charge 0 multiplicity 1
 O         4.272765         2.990605        -2.639777
 C         2.991365         2.426516        -2.372100
 C         2.069698         2.498884        -3.616597
 C         2.703616         1.150172        -3.151892
 C         1.970220         0.208306        -2.132293
 C         1.442639         1.060862        -0.966060
 C         2.493348         2.204504        -0.958754
 C         1.222347         0.300072         0.379908
 O         0.318826         0.511250         1.143036
 H         4.440389         3.895798        -2.421494
 H         1.023484         2.756005        -3.544987
 H         2.674850         3.028808        -4.373520
 H         3.506013         0.843587        -3.749588
 H         1.169526        -0.356523        -2.629731
 H         2.589152        -0.594191        -1.653301
 H         0.464664         1.582678        -1.244101
 H         2.080800         3.132410        -0.499733
 H         3.336703         1.928877        -0.354891
 H         2.039225        -0.427560         0.566284
