19
Iteration:  2624charge 0 multiplicity 1
 O         4.345633         2.830355        -2.583089
 C         2.983700         2.430750        -2.455543
 C         2.007664         2.551570        -3.561800
 C         2.635231         1.208613        -3.184538
 C         1.900922         0.235027        -2.134715
 C         1.458969         1.087102        -0.913250
 C         2.615002         2.293486        -0.943597
 C         1.291432         0.525871         0.521464
 O         0.239322         0.230877         1.023343
 H         4.285917         3.723049        -2.994058
 H         0.983641         2.809955        -3.521883
 H         2.460246         3.108980        -4.395935
 H         3.541405         0.804973        -3.744371
 H         1.031691        -0.208984        -2.734223
 H         2.736266        -0.530744        -2.072099
 H         0.525260         1.493313        -1.339900
 H         2.112464         3.165438        -0.497733
 H         3.475752         2.078895        -0.378744
 H         2.281222         0.582494         1.036544
