19
Iteration:  4341charge 0 multiplicity 1
 O         4.363017         2.969745        -2.494958
 C         3.034297         2.369915        -2.352829
 C         1.872744         2.308422        -3.376296
 C         2.663415         1.146727        -3.126972
 C         1.946143         0.189468        -2.155684
 C         1.427860         1.133619        -1.076464
 C         2.508035         2.223748        -0.936637
 C         1.304973         0.414179         0.198736
 O         0.406592         0.563104         0.960269
 H         4.141771         3.909030        -2.416690
 H         0.831440         2.612890        -3.199222
 H         2.135744         2.864160        -4.228242
 H         3.283072         0.673791        -4.003106
 H         1.094307        -0.299339        -2.620890
 H         2.738571        -0.413518        -1.647661
 H         0.461229         1.588783        -0.995723
 H         1.950644         3.070289        -0.630274
 H         3.258313         2.050295        -0.130708
 H         2.221773        -0.004940         0.669409
