19
Iteration:   354charge 0 multiplicity 1
 O         4.295522         2.845700        -2.610378
 C         2.999708         2.474185        -2.393080
 C         1.916722         2.539426        -3.407513
 C         2.528479         1.229157        -3.121973
 C         1.966111         0.222965        -2.108138
 C         1.559949         1.100325        -0.966427
 C         2.588814         2.249285        -0.906340
 C         1.409734         0.468225         0.392455
 O         0.267207         0.302689         0.832306
 H         4.373483         3.714787        -2.211857
 H         0.803658         2.830931        -3.119437
 H         1.929112         3.033393        -4.462124
 H         3.132387         0.784767        -3.891518
 H         1.203430        -0.462503        -2.448358
 H         2.851925        -0.384767        -1.902865
 H         0.587759         1.497432        -1.180406
 H         2.201450         3.143917        -0.359845
 H         3.492245         2.033604        -0.327231
 H         2.298457         0.034443         0.808747
