19
Iteration:  4762
 O         4.269922         3.031111        -2.515530
 C         3.114206         2.395292        -2.367873
 C         2.021704         2.340781        -3.372499
 C         2.753654         1.057526        -3.081850
 C         1.855208         0.150627        -2.214681
 C         1.370574         1.160163        -1.039505
 C         2.433046         2.233342        -1.004110
 C         1.347077         0.408382         0.265948
 O         0.409555         0.579020         1.033443
 H         3.968182         3.940846        -2.585041
 H         1.007593         2.364065        -3.154896
 H         2.193172         2.887339        -4.284224
 H         3.423833         0.521365        -3.741493
 H         0.958395        -0.218540        -2.725948
 H         2.617098        -0.566059        -1.926146
 H         0.340213         1.519209        -1.172509
 H         1.954719         3.196517        -0.707373
 H         3.228221         2.025651        -0.305563
 H         2.211682        -0.369452         0.427192
