19
Iteration:   698charge 0 multiplicity 1
 O         4.309134         2.823212        -2.489692
 C         2.906412         2.472362        -2.355348
 C         1.903328         2.621444        -3.442594
 C         2.565912         1.328423        -3.256807
 C         1.982635         0.222345        -2.230941
 C         1.426722         1.077444        -1.026461
 C         2.682858         2.130235        -0.841675
 C         1.306901         0.357054         0.277333
 O         0.360660         0.410396         1.082387
 H         4.364131         3.317770        -3.295851
 H         0.812503         2.678970        -3.083500
 H         2.067256         3.400476        -4.213148
 H         3.421587         1.013304        -3.843226
 H         1.223175        -0.489626        -2.705982
 H         2.864833        -0.416772        -2.007481
 H         0.497849         1.769620        -1.151065
 H         2.409697         3.100821        -0.326924
 H         3.613573         1.560992        -0.578340
 H         2.220474        -0.177376         0.580329
