19
Iteration:  3036
 O         4.198717         3.079758        -2.374340
 C         2.935605         2.376903        -2.309251
 C         2.147098         2.486022        -3.550376
 C         2.694578         1.090988        -3.256051
 C         1.821435         0.207337        -2.333454
 C         1.427924         1.014048        -1.049032
 C         2.464484         2.100282        -0.945297
 C         1.362812         0.364557         0.375649
 O         0.430294         0.627070         1.156466
 H         4.106896         3.799844        -2.996896
 H         1.157554         2.414208        -3.817689
 H         2.675499         2.862185        -4.399373
 H         3.588555         0.683319        -3.762235
 H         0.993408        -0.133291        -2.980496
 H         2.374497        -0.760134        -2.004615
 H         0.520581         1.519595        -1.280763
 H         2.112405         2.993504        -0.488646
 H         3.420202         1.815523        -0.390845
 H         2.249480        -0.165876         0.769252
