19
Iteration:  4365
 O         4.240397         2.963783        -2.537564
 C         3.058389         2.375239        -2.374413
 C         2.090720         2.529342        -3.415744
 C         2.655955         1.130970        -3.123789
 C         1.940827         0.074647        -2.176354
 C         1.426450         1.048289        -1.113336
 C         2.484539         2.239364        -1.011956
 C         1.323802         0.496625         0.341368
 O         0.335574         0.497967         1.065583
 H         4.125248         3.917906        -2.558925
 H         1.020291         2.859536        -3.040378
 H         2.130679         2.912801        -4.424715
 H         3.438803         0.752492        -3.918705
 H         1.068816        -0.354011        -2.697398
 H         2.674575        -0.583891        -1.707309
 H         0.440371         1.422631        -1.196335
 H         2.128775         3.185833        -0.556693
 H         3.281732         1.850199        -0.301914
 H         2.221394        -0.075157         0.776798
