19
Iteration:  2375charge 0 multiplicity 1
 O         4.298492         2.927418        -2.427770
 C         3.043540         2.264744        -2.246507
 C         2.069017         2.393417        -3.510472
 C         2.688033         1.055150        -3.063220
 C         1.732128         0.293254        -2.291037
 C         1.320452         1.259173        -1.078434
 C         2.363266         2.396780        -0.911233
 C         1.422159         0.487725         0.199310
 O         0.570774         0.379792         1.038924
 H         4.051492         3.117347        -3.340256
 H         1.019584         2.531765        -3.287393
 H         2.479029         2.945294        -4.313545
 H         3.472629         0.552366        -3.633488
 H         0.939511        -0.184594        -2.888504
 H         2.338839        -0.574247        -1.855590
 H         0.262920         1.548341        -1.208514
 H         1.896945         3.277066        -0.522369
 H         3.008519         2.046776        -0.101224
 H         2.481972         0.033568         0.531816
