19
Iteration:   914charge 0 multiplicity 1
 O         4.471051         2.955659        -2.538354
 C         3.134349         2.373242        -2.443582
 C         2.025255         2.537334        -3.475229
 C         2.482385         1.128126        -3.123673
 C         1.583134         0.373606        -2.156632
 C         1.389012         1.233736        -0.921002
 C         2.560501         2.419350        -1.040784
 C         1.440988         0.384098         0.365556
 O         0.400182         0.033152         0.977461
 H         4.570220         3.657791        -1.828340
 H         1.008540         2.823489        -3.216298
 H         2.379129         2.820603        -4.419478
 H         2.950738         0.491144        -3.954237
 H         0.636170         0.097686        -2.688254
 H         2.150519        -0.508687        -1.943884
 H         0.498112         1.796591        -0.932440
 H         2.222198         3.333260        -0.629117
 H         3.329149         2.165142        -0.356131
 H         2.449172         0.104867         0.814010
