19
Iteration:   871
 O         4.370667         2.739027        -2.576436
 C         2.987150         2.490938        -2.310096
 C         2.044073         2.535968        -3.528720
 C         2.474125         1.238691        -3.097877
 C         1.737418         0.372272        -2.180613
 C         1.381569         1.266409        -0.949756
 C         2.481160         2.272443        -0.890029
 C         1.431635         0.414010         0.253375
 O         0.483187         0.141436         0.959228
 H         4.640358         3.687743        -2.412730
 H         1.036186         2.873039        -3.460700
 H         2.564446         2.989665        -4.345656
 H         3.374445         0.908511        -3.724813
 H         0.837065        -0.232310        -2.555713
 H         2.490595        -0.323600        -1.796855
 H         0.364313         1.609881        -1.062449
 H         2.289635         3.219826        -0.364121
 H         3.375026         1.870692        -0.336593
 H         2.433103         0.215254         0.707495
