19
Iteration:  2476charge 0 multiplicity 1
 O         4.383540         2.885722        -2.379058
 C         2.989913         2.376008        -2.312344
 C         1.906605         2.376845        -3.456156
 C         2.654307         1.122666        -3.039212
 C         1.844584         0.252663        -2.229249
 C         1.393008         1.201883        -1.152047
 C         2.374926         2.297310        -0.955751
 C         1.390618         0.399729         0.214666
 O         0.526077         0.505524         1.020401
 H         4.545971         3.310401        -3.262999
 H         0.828399         2.393702        -3.273943
 H         2.351283         3.014744        -4.282212
 H         3.311739         0.686306        -3.842771
 H         0.974295        -0.186012        -2.582540
 H         2.499268        -0.597881        -1.791374
 H         0.331449         1.560568        -1.233749
 H         1.872353         3.185007        -0.604507
 H         3.260672         2.094064        -0.358801
 H         2.344025        -0.033812         0.474226
