19
Iteration:  3052
 O         4.193703         2.997975        -2.440158
 C         2.928916         2.416236        -2.392918
 C         2.163779         2.489994        -3.712196
 C         2.803618         1.172213        -3.052259
 C         1.849975         0.183881        -2.337932
 C         1.384607         1.001999        -1.048424
 C         2.433714         2.165475        -0.951648
 C         1.302061         0.332839         0.375374
 O         0.467264         0.603078         1.222846
 H         4.103645         3.859369        -2.803807
 H         1.120179         2.904580        -3.457810
 H         2.783218         2.995138        -4.482630
 H         3.616137         0.759439        -3.665157
 H         0.909734        -0.123871        -2.816333
 H         2.392995        -0.752329        -2.205212
 H         0.277406         1.346658        -1.081639
 H         1.991783         3.016685        -0.332532
 H         3.247233         1.714219        -0.455127
 H         2.097751        -0.471730         0.560951
