19
Iteration:  2431
 O         4.288713         3.028390        -2.343363
 C         3.079546         2.367180        -2.466048
 C         2.179338         2.558182        -3.676228
 C         2.636204         1.089075        -3.286419
 C         1.771696         0.291620        -2.192288
 C         1.338422         1.065733        -0.927813
 C         2.454309         2.288450        -1.046160
 C         1.293326         0.373154         0.370107
 O         0.448782         0.383155         1.290990
 H         4.633119         2.955207        -3.269367
 H         1.075758         2.665269        -3.791300
 H         2.634668         2.952838        -4.549108
 H         3.249351         0.545990        -4.054823
 H         0.973735        -0.171553        -2.713925
 H         2.500329        -0.552554        -1.917862
 H         0.332938         1.474025        -1.174118
 H         1.858874         3.145710        -0.840862
 H         3.196640         2.210066        -0.267598
 H         2.226334        -0.195079         0.470878
