19
Iteration:  1168
 O         4.373501         2.953441        -2.576972
 C         3.102382         2.379037        -2.396323
 C         1.981875         2.584714        -3.451693
 C         2.478747         1.203443        -3.156115
 C         1.803529         0.273378        -2.126846
 C         1.445046         1.198986        -0.951290
 C         2.547139         2.272977        -0.949900
 C         1.396924         0.334672         0.340191
 O         0.356307         0.248701         0.934555
 H         4.636192         3.557052        -1.814842
 H         0.976666         2.955783        -3.051770
 H         2.256461         3.034070        -4.446835
 H         2.902296         0.664157        -3.989276
 H         0.947985        -0.306013        -2.618829
 H         2.618491        -0.359165        -1.861949
 H         0.351747         1.551093        -1.129479
 H         2.315103         3.152078        -0.261375
 H         3.410795         1.838409        -0.441647
 H         2.354629        -0.281434         0.524128
