19
Iteration:   716
 O         4.309662         2.873311        -2.474521
 C         3.047658         2.408173        -2.382718
 C         1.862372         2.634795        -3.362499
 C         2.511065         1.218912        -3.165061
 C         1.925346         0.288263        -2.211252
 C         1.555330         1.129654        -0.976134
 C         2.585324         2.174581        -0.927176
 C         1.341237         0.247485         0.276310
 O         0.368793         0.464756         0.975501
 H         4.319210         3.662499        -3.017842
 H         0.887279         2.842584        -3.089033
 H         2.110657         3.043148        -4.296920
 H         3.047772         0.830838        -4.025585
 H         1.068710        -0.349112        -2.492890
 H         2.769340        -0.452646        -2.017361
 H         0.603063         1.510998        -1.141785
 H         2.264310         3.083044        -0.457717
 H         3.598588         1.853240        -0.553033
 H         2.050419        -0.644212         0.398014
