19
Iteration:  2740
 O         4.382622         2.876604        -2.583928
 C         3.065572         2.326131        -2.374320
 C         2.147323         2.513569        -3.653989
 C         2.586005         1.158739        -3.137879
 C         1.628784         0.277846        -2.127969
 C         1.507633         1.286517        -0.843301
 C         2.481870         2.431014        -0.993789
 C         1.322975         0.595410         0.600187
 O         0.352905        -0.042950         0.907855
 H         4.449456         3.713646        -3.115582
 H         1.066886         2.687517        -3.915657
 H         2.786546         2.767104        -4.578791
 H         3.398211         0.592546        -3.734754
 H         0.659522         0.079673        -2.446977
 H         2.213650        -0.585928        -1.868375
 H         0.591097         1.869910        -0.933881
 H         2.039498         3.408100        -0.778375
 H         3.445317         2.378919        -0.383087
 H         2.213888         0.668184         1.280372
