19
Iteration:  4502
 O         4.381261         2.832463        -2.482931
 C         2.956077         2.372962        -2.436513
 C         2.126603         2.456109        -3.732619
 C         2.603332         1.192083        -3.150312
 C         1.845063         0.298828        -2.041914
 C         1.451954         1.280243        -0.879519
 C         2.382996         2.344893        -1.032579
 C         1.404676         0.512018         0.478476
 O         0.330369         0.162618         0.969365
 H         4.284166         3.762788        -2.817794
 H         1.066806         2.777175        -3.680409
 H         2.519100         2.768414        -4.627087
 H         3.286233         0.513745        -3.791522
 H         0.997522        -0.230662        -2.433200
 H         2.510747        -0.362710        -1.529766
 H         0.364278         1.491226        -0.766494
 H         2.116296         3.392918        -0.753222
 H         3.246256         2.148407        -0.369020
 H         2.488060         0.329965         0.858753
