19
Iteration:  2207
 O         4.276961         3.068770        -2.517816
 C         2.973792         2.497944        -2.427739
 C         1.929568         2.399228        -3.553555
 C         2.662616         1.087145        -3.036825
 C         1.853107         0.287287        -2.119299
 C         1.581306         1.240293        -0.932039
 C         2.742004         2.237691        -0.966816
 C         1.287377         0.442810         0.428465
 O         0.203490         0.251267         0.898106
 H         4.451948         2.666270        -3.364466
 H         0.854174         2.778244        -3.517875
 H         2.352915         2.694438        -4.498030
 H         3.278822         0.617410        -3.832249
 H         0.912461        -0.358394        -2.517022
 H         2.574231        -0.539398        -1.747836
 H         0.629368         1.807262        -0.984790
 H         2.590543         3.156375        -0.329735
 H         3.736810         1.897476        -0.691625
 H         2.080706        -0.131946         1.028385
