19
Iteration:  3350charge 0 multiplicity 1
 O         4.370890         2.978598        -2.666381
 C         3.039762         2.375801        -2.455119
 C         2.147667         2.489348        -3.701509
 C         2.637682         1.108200        -3.101123
 C         1.794891         0.337460        -2.044305
 C         1.482264         1.233549        -0.862698
 C         2.561574         2.426137        -0.967232
 C         1.281614         0.386561         0.538159
 O         0.197643         0.082526         1.006752
 H         4.152175         3.931657        -2.810599
 H         1.100542         2.631476        -3.415102
 H         2.484056         2.853565        -4.601156
 H         3.346840         0.487025        -3.865000
 H         0.882952        -0.127409        -2.517386
 H         2.497223        -0.386291        -1.578115
 H         0.520437         1.687369        -1.034229
 H         2.285542         3.454424        -0.577247
 H         3.510770         2.297405        -0.426102
 H         2.288003        -0.093718         0.836728
