19
Iteration:   638charge 0 multiplicity 1
 O         4.286236         3.045384        -2.372615
 C         3.070872         2.354851        -2.357832
 C         1.941282         2.464289        -3.421015
 C         2.520145         1.094935        -3.184646
 C         1.714137         0.333194        -2.216897
 C         1.525423         1.198768        -0.966937
 C         2.619191         2.251583        -0.964118
 C         1.405318         0.293808         0.265883
 O         0.421535         0.335117         0.963974
 H         4.611154         3.279648        -3.259381
 H         0.982928         2.844842        -3.071746
 H         2.307230         2.729882        -4.412425
 H         3.112221         0.679852        -4.042148
 H         0.712220         0.191441        -2.621308
 H         2.192766        -0.678262        -1.985137
 H         0.610806         1.741303        -1.068012
 H         2.285245         3.243220        -0.663196
 H         3.549132         2.379709        -0.308092
 H         2.271194        -0.388885         0.458925
