19
Iteration:  2048
 O         4.300864         2.938031        -2.403122
 C         3.016535         2.380386        -2.373126
 C         2.069649         2.433741        -3.503554
 C         2.628918         1.119946        -3.039185
 C         1.710514         0.337538        -2.236439
 C         1.352185         1.289572        -1.043509
 C         2.506475         2.359441        -1.006856
 C         1.401088         0.431979         0.274239
 O         0.493216         0.197367         1.049463
 H         4.569716         2.740958        -3.311142
 H         1.033808         2.776594        -3.177654
 H         2.497506         3.036964        -4.322584
 H         3.414354         0.514451        -3.581681
 H         0.801740         0.140383        -2.789292
 H         2.072838        -0.645279        -2.043436
 H         0.346228         1.758817        -1.072246
 H         2.083380         3.255867        -0.598232
 H         3.378816         1.974412        -0.410939
 H         2.389194         0.056398         0.449386
