19
Iteration:  1696
 O         4.326544         2.896286        -2.681834
 C         3.004915         2.452149        -2.370833
 C         2.156791         2.703524        -3.521461
 C         2.537986         1.185249        -3.071109
 C         1.656469         0.415610        -2.161470
 C         1.427466         1.222185        -0.879879
 C         2.605948         2.325994        -0.906373
 C         1.365752         0.419092         0.385532
 O         0.362550        -0.028906         0.979024
 H         4.941030         2.157925        -2.919822
 H         1.114283         2.851346        -3.310630
 H         2.536963         3.156397        -4.466595
 H         3.214246         0.700678        -3.819244
 H         0.864336        -0.072252        -2.703882
 H         2.168882        -0.545675        -1.871766
 H         0.386667         1.618586        -0.940097
 H         2.260244         3.286172        -0.526039
 H         3.597447         1.977262        -0.421171
 H         2.336297         0.310223         0.863391
