19
Iteration:  2011charge 0 multiplicity 1
 O         4.315091         3.018894        -2.371039
 C         3.050379         2.385328        -2.391238
 C         2.171682         2.526566        -3.678172
 C         2.438451         1.126852        -3.185290
 C         1.675880         0.334973        -2.203679
 C         1.419395         1.157254        -0.942546
 C         2.436561         2.346645        -1.060593
 C         1.397919         0.326735         0.347090
 O         0.486696         0.230320         1.130022
 H         5.146922         2.546782        -2.478555
 H         1.346069         3.212617        -3.689018
 H         2.904246         2.795897        -4.491654
 H         3.056149         0.518438        -3.789398
 H         0.777512        -0.070856        -2.677232
 H         2.314511        -0.483448        -1.807140
 H         0.390327         1.654872        -1.058465
 H         2.012080         3.336586        -0.656015
 H         3.332950         2.273450        -0.282992
 H         2.317695        -0.214861         0.500981
