19
Iteration:  4258charge 0 multiplicity 1
 O         4.237340         2.952130        -2.420193
 C         3.009151         2.386771        -2.404664
 C         2.029157         2.453909        -3.464390
 C         2.731575         1.062062        -3.074893
 C         1.847605         0.216992        -2.141226
 C         1.422625         1.153806        -1.087543
 C         2.499853         2.245895        -1.031329
 C         1.371761         0.472827         0.267931
 O         0.413087         0.463465         1.037531
 H         4.178363         3.824008        -2.839330
 H         0.911377         2.329600        -3.127189
 H         2.305153         2.903816        -4.398928
 H         3.503525         0.657676        -3.845447
 H         0.946222        -0.319551        -2.585965
 H         2.400946        -0.683453        -1.804037
 H         0.416436         1.695850        -1.106412
 H         1.965512         3.190122        -0.679409
 H         3.285645         1.970412        -0.327550
 H         2.257312        -0.112706         0.408388
