19
Iteration:  3903charge 0 multiplicity 1
 O         4.258161         2.896319        -2.502950
 C         3.008928         2.369124        -2.416382
 C         2.047494         2.478568        -3.580273
 C         2.701034         1.078967        -3.121647
 C         1.866362         0.258078        -2.135736
 C         1.479392         1.182911        -1.010886
 C         2.504592         2.313112        -0.925192
 C         1.316360         0.569022         0.379543
 O         0.334409         0.265212         1.020018
 H         4.177158         3.641737        -3.171256
 H         1.033643         2.696201        -3.354911
 H         2.447046         3.021287        -4.475965
 H         3.686465         0.707031        -3.530552
 H         0.903714        -0.189718        -2.563923
 H         2.500562        -0.579941        -1.731125
 H         0.507366         1.642323        -1.256058
 H         1.951425         3.080038        -0.479706
 H         3.404176         2.213990        -0.420704
 H         2.329141         0.187041         0.774002
