19
Iteration:  4766charge 0 multiplicity 1
 O         4.266004         3.025010        -2.499744
 C         3.126460         2.382772        -2.398778
 C         2.015394         2.379144        -3.403159
 C         2.738554         1.044467        -3.083364
 C         1.840537         0.145129        -2.228743
 C         1.390505         1.160686        -1.024548
 C         2.411106         2.248207        -0.995437
 C         1.331427         0.399732         0.284907
 O         0.421044         0.577217         1.042423
 H         3.954223         3.966781        -2.547668
 H         0.936761         2.308534        -3.084605
 H         2.326889         2.879776        -4.303972
 H         3.564552         0.645935        -3.646751
 H         1.032948        -0.285964        -2.839386
 H         2.629832        -0.593858        -1.770040
 H         0.378225         1.519333        -1.218766
 H         1.950282         3.237566        -0.770405
 H         3.319848         1.971610        -0.411384
 H         2.183715        -0.390415         0.435592
