19
Iteration:  4473charge 0 multiplicity 1
 O         4.336863         2.880659        -2.533613
 C         2.991369         2.414024        -2.397435
 C         2.111353         2.431437        -3.602582
 C         2.664000         1.103711        -3.044830
 C         1.805545         0.207048        -2.150340
 C         1.442743         1.253568        -0.993630
 C         2.430041         2.362637        -0.965383
 C         1.320321         0.564429         0.352002
 O         0.394102         0.191722         1.052058
 H         4.251439         3.808735        -2.762538
 H         1.085027         2.793344        -3.290590
 H         2.485378         2.704112        -4.670458
 H         3.500201         0.675130        -3.820179
 H         0.874610        -0.086110        -2.705088
 H         2.247828        -0.792792        -1.737211
 H         0.411512         1.787055        -1.113739
 H         2.069552         3.334042        -0.678077
 H         3.309221         2.143249        -0.330021
 H         2.401317         0.430781         0.776028
