19
Iteration:  4767charge 0 multiplicity 1
 O         4.268292         3.026487        -2.495996
 C         3.116980         2.369851        -2.403592
 C         2.016101         2.388674        -3.413809
 C         2.731472         1.044726        -3.081554
 C         1.842145         0.145987        -2.229997
 C         1.397147         1.155919        -1.022689
 C         2.407975         2.256361        -0.993807
 C         1.328599         0.396042         0.288569
 O         0.423824         0.576073         1.046895
 H         3.972837         3.983282        -2.538963
 H         0.912526         2.308145        -3.064753
 H         2.362928         2.891276        -4.349509
 H         3.629684         0.663692        -3.659412
 H         1.055050        -0.315824        -2.865428
 H         2.586290        -0.596673        -1.733404
 H         0.385485         1.524717        -1.232621
 H         1.962131         3.234628        -0.776500
 H         3.342258         1.959582        -0.414797
 H         2.149260        -0.368111         0.439947
