19
Iteration:  4759charge 0 multiplicity 1
 O         4.282893         3.042687        -2.528679
 C         3.070509         2.371943        -2.335644
 C         2.038283         2.317368        -3.369043
 C         2.754336         1.071856        -3.077596
 C         1.874041         0.171780        -2.201126
 C         1.364202         1.142407        -1.055546
 C         2.453345         2.237782        -1.006782
 C         1.354901         0.412980         0.251799
 O         0.404988         0.576769         1.029710
 H         4.041739         4.005244        -2.623718
 H         0.923186         2.427220        -3.137026
 H         2.133191         2.908200        -4.360688
 H         3.377564         0.445654        -3.882956
 H         0.932516        -0.212823        -2.654665
 H         2.530105        -0.633156        -1.971671
 H         0.328972         1.530569        -1.161526
 H         1.987854         3.142373        -0.642969
 H         3.192742         2.045495        -0.152802
 H         2.153250        -0.267544         0.434124
