19
Iteration:  4016charge 0 multiplicity 1
 O         4.283371         2.996856        -2.682815
 C         3.134376         2.312954        -2.401286
 C         2.008557         2.428141        -3.441615
 C         2.655827         1.064500        -3.074019
 C         1.865801         0.244989        -2.091666
 C         1.438158         1.264783        -0.957851
 C         2.601426         2.317800        -0.995932
 C         1.295245         0.575707         0.391157
 O         0.267964         0.178656         0.883753
 H         4.381955         3.813289        -2.142943
 H         0.915495         2.455654        -3.043834
 H         2.272318         2.910521        -4.393417
 H         3.339602         0.510787        -3.666318
 H         0.966976        -0.335124        -2.418965
 H         2.610147        -0.438714        -1.506028
 H         0.550392         1.813979        -1.179460
 H         2.112441         3.203342        -0.488200
 H         3.323322         2.096323        -0.177586
 H         2.226183         0.655456         0.972329
