19
Iteration:   977charge 0 multiplicity 1
 O         4.459872         2.867449        -2.457666
 C         3.079899         2.433958        -2.437563
 C         1.998316         2.564524        -3.527312
 C         2.375643         1.173228        -3.124714
 C         1.728413         0.303896        -2.108964
 C         1.465025         1.364447        -0.825263
 C         2.533114         2.340636        -0.953965
 C         1.352494         0.396001         0.264926
 O         0.416662         0.044950         0.912308
 H         4.513541         3.649655        -3.074824
 H         1.078369         2.983585        -3.213314
 H         2.235814         2.862993        -4.509978
 H         3.178531         0.661166        -3.807367
 H         0.893390        -0.183450        -2.454267
 H         2.491987        -0.482015        -1.811951
 H         0.509455         1.740768        -1.026183
 H         2.284627         3.264698        -0.474670
 H         3.498974         1.903617        -0.501458
 H         2.410797         0.078070         0.490301
