19
Iteration:  2189charge 0 multiplicity 1
 O         4.241406         3.136527        -2.584732
 C         3.129132         2.306279        -2.477380
 C         1.979308         2.427194        -3.441682
 C         2.620661         1.092459        -3.168293
 C         1.873308         0.262373        -2.055016
 C         1.495421         1.263410        -0.865328
 C         2.682460         2.230094        -0.918012
 C         1.280988         0.499793         0.374381
 O         0.215011         0.239422         0.893521
 H         4.924396         2.835325        -3.176444
 H         0.969814         2.461903        -2.974715
 H         2.142816         3.043714        -4.315704
 H         3.336935         0.721206        -3.908577
 H         1.018954        -0.128427        -2.487683
 H         2.420863        -0.668320        -1.867328
 H         0.490047         1.592645        -1.240944
 H         2.420218         3.195925        -0.548427
 H         3.534228         1.791785        -0.363259
 H         2.209752         0.174753         0.889791
