19
Iteration:  2631charge 0 multiplicity 1
 O         4.326189         2.818788        -2.604511
 C         3.014896         2.480840        -2.402667
 C         2.028813         2.550791        -3.606129
 C         2.617080         1.241367        -3.127436
 C         1.920901         0.241468        -2.187390
 C         1.533334         1.110095        -0.876665
 C         2.545203         2.239478        -0.991465
 C         1.271381         0.552115         0.500019
 O         0.233040         0.203994         1.033876
 H         4.547319         3.690839        -2.942011
 H         0.877243         2.582685        -3.437165
 H         2.472881         3.037394        -4.454907
 H         3.376578         0.716676        -3.700907
 H         1.093670        -0.188220        -2.609383
 H         2.611170        -0.601778        -2.099904
 H         0.535951         1.555883        -1.067817
 H         2.145818         3.215371        -0.589296
 H         3.533414         2.071812        -0.477055
 H         2.187152         0.559220         1.144265
