19
Iteration:  2397
 O         4.273500         2.964242        -2.303825
 C         2.989239         2.442886        -2.411969
 C         2.105961         2.437334        -3.560158
 C         2.678136         1.086564        -3.082547
 C         1.715898         0.253496        -2.176653
 C         1.317469         1.153351        -1.031199
 C         2.450229         2.288682        -1.047825
 C         1.390318         0.470648         0.237245
 O         0.556114         0.400823         1.073390
 H         4.674712         3.074919        -3.206139
 H         1.017906         2.472162        -3.587225
 H         2.564531         2.670436        -4.461538
 H         3.354688         0.527018        -3.741079
 H         0.748168        -0.014485        -2.615331
 H         2.153471        -0.710249        -1.823679
 H         0.260685         1.480342        -1.058176
 H         2.023805         3.175920        -0.605089
 H         3.319253         2.032056        -0.411243
 H         2.360498        -0.126855         0.419671
