19
Iteration:  2739charge 0 multiplicity 1
 O         4.382868         2.873907        -2.585825
 C         3.060227         2.325681        -2.371919
 C         2.149978         2.507661        -3.655989
 C         2.593323         1.162042        -3.132938
 C         1.629126         0.274098        -2.126244
 C         1.506102         1.292856        -0.833181
 C         2.483482         2.438322        -0.991996
 C         1.330940         0.590073         0.590476
 O         0.347249        -0.042508         0.908294
 H         4.417729         3.700574        -3.130657
 H         1.063408         2.667566        -3.917167
 H         2.776135         2.776162        -4.555269
 H         3.378420         0.631419        -3.751281
 H         0.621957         0.105846        -2.458597
 H         2.249318        -0.571608        -1.899982
 H         0.584774         1.856939        -0.950208
 H         2.065892         3.388305        -0.779856
 H         3.431947         2.368379        -0.410889
 H         2.205241         0.673929         1.291474
