19
Iteration:  3201
 O         4.268682         3.034375        -2.371007
 C         2.990714         2.377719        -2.319319
 C         2.011452         2.373855        -3.423685
 C         2.709305         1.082495        -3.143857
 C         1.844473         0.099742        -2.305750
 C         1.317331         1.136661        -1.130576
 C         2.497577         2.211003        -0.898936
 C         1.275940         0.394329         0.166520
 O         0.571290         0.640953         1.076232
 H         4.043445         3.923554        -2.640326
 H         0.972665         2.431490        -3.027314
 H         2.106597         2.678393        -4.441105
 H         3.731849         0.897895        -3.615758
 H         0.953851        -0.349004        -2.770552
 H         2.456012        -0.687462        -1.814840
 H         0.346332         1.589568        -1.340612
 H         2.223780         3.261454        -0.484028
 H         3.429790         1.771899        -0.312000
 H         2.054407        -0.413932         0.169428
