19
Iteration:  3831charge 0 multiplicity 1
 O         4.285437         2.895010        -2.549065
 C         3.026380         2.337130        -2.289540
 C         2.044167         2.353739        -3.471685
 C         2.752638         1.017349        -3.052523
 C         1.877558         0.263388        -2.211412
 C         1.350970         1.231895        -1.093163
 C         2.334981         2.372273        -0.894801
 C         1.352845         0.527048         0.187912
 O         0.511507         0.380077         1.063722
 H         4.314106         3.822201        -2.224550
 H         0.985259         2.453292        -3.162385
 H         2.275688         3.027427        -4.357223
 H         3.469705         0.628878        -3.845885
 H         0.985260        -0.095897        -2.684818
 H         2.286743        -0.612219        -1.700826
 H         0.373468         1.614189        -1.592061
 H         1.941023         3.450172        -0.736218
 H         2.994970         2.233804         0.063066
 H         2.270357        -0.153170         0.243372
