19
Iteration:  4322charge 0 multiplicity 1
 O         4.278551         2.906553        -2.533541
 C         2.947512         2.397549        -2.391270
 C         1.965049         2.448526        -3.494482
 C         2.714614         1.136036        -3.084999
 C         1.985609         0.161610        -2.174970
 C         1.465955         1.164438        -0.994127
 C         2.518756         2.290317        -0.918674
 C         1.282084         0.400050         0.266588
 O         0.371517         0.533286         1.023921
 H         4.136434         3.819609        -2.280986
 H         0.777259         2.424808        -3.257361
 H         2.136573         2.863535        -4.473933
 H         3.523800         0.597971        -3.762314
 H         1.063593        -0.307991        -2.616700
 H         2.761686        -0.547550        -1.891066
 H         0.492782         1.465327        -1.381023
 H         2.187888         3.205087        -0.343480
 H         3.490894         1.971965        -0.410510
 H         1.988360        -0.496484         0.408653
