19
Iteration:  4061charge 0 multiplicity 1
 O         4.346876         2.820056        -2.600236
 C         2.959504         2.452900        -2.431862
 C         2.002420         2.442395        -3.595700
 C         2.676725         1.135261        -3.013397
 C         1.900011         0.275667        -1.997165
 C         1.471751         1.253706        -0.930741
 C         2.513792         2.388871        -0.961339
 C         1.375660         0.549007         0.384507
 O         0.279401         0.162344         0.854732
 H         4.301457         3.825397        -2.542312
 H         0.963885         2.501801        -3.359789
 H         2.242961         2.916125        -4.613700
 H         3.347969         0.670505        -3.617633
 H         0.930730        -0.225800        -2.246544
 H         2.535709        -0.531602        -1.450600
 H         0.451160         1.428462        -1.243150
 H         2.117882         3.353551        -0.529642
 H         3.418928         2.218372        -0.359522
 H         2.384529         0.151092         0.764289
