19
Iteration:  1404
 O         4.330600         3.044064        -2.617794
 C         3.062157         2.421643        -2.397195
 C         2.054195         2.641926        -3.412757
 C         2.517209         1.173628        -3.147647
 C         1.705680         0.220100        -2.345424
 C         1.419609         1.101867        -0.933620
 C         2.638117         2.171376        -0.939812
 C         1.352922         0.338679         0.381760
 O         0.397143         0.308957         1.068253
 H         4.601987         3.373800        -1.749071
 H         1.086643         3.185823        -3.048680
 H         2.348052         3.045375        -4.435848
 H         3.043970         0.593759        -3.905024
 H         0.902961        -0.008203        -3.065025
 H         2.347271        -0.617631        -2.122649
 H         0.434198         1.539347        -0.944261
 H         2.334272         2.970362        -0.253131
 H         3.594300         1.749364        -0.515859
 H         2.178046        -0.299980         0.697441
