19
Iteration:   571charge 0 multiplicity 1
 O         4.445163         2.873338        -2.553221
 C         3.059583         2.385609        -2.425047
 C         2.088868         2.555389        -3.480425
 C         2.513387         1.142752        -3.182949
 C         1.682251         0.293561        -2.174737
 C         1.358745         1.284032        -0.936830
 C         2.461009         2.368271        -1.040554
 C         1.414280         0.494479         0.424425
 O         0.455190         0.029100         1.020105
 H         4.251501         3.773992        -2.157758
 H         1.038828         2.953083        -3.095811
 H         2.529474         2.940603        -4.433944
 H         3.275280         0.735887        -3.844849
 H         0.729338         0.023666        -2.609174
 H         2.318444        -0.684032        -2.069847
 H         0.330435         1.665690        -0.970193
 H         2.017602         3.353666        -0.774077
 H         3.217157         2.168937        -0.161638
 H         2.470517         0.332451         0.769714
