19
Iteration:  3164charge 0 multiplicity 1
 O         4.196493         3.020396        -2.283080
 C         2.972336         2.307267        -2.328282
 C         2.162538         2.524523        -3.588423
 C         2.651392         1.106732        -3.224420
 C         1.869307         0.117627        -2.414026
 C         1.358110         0.945192        -1.046605
 C         2.406417         2.149320        -0.966254
 C         1.328807         0.386213         0.343780
 O         0.566529         0.734891         1.176595
 H         3.894565         3.843585        -2.750318
 H         1.127992         2.819139        -3.520043
 H         2.634875         2.964723        -4.537493
 H         3.507604         0.849068        -3.868775
 H         0.966574        -0.239086        -2.976453
 H         2.508139        -0.734520        -2.243038
 H         0.340216         1.388985        -1.195159
 H         1.878807         2.914775        -0.480633
 H         3.225432         1.939702        -0.243610
 H         2.239202        -0.256199         0.559006
