19
Iteration:  1712
 O         4.365015         2.943106        -2.640431
 C         3.069147         2.472567        -2.340162
 C         1.998715         2.554141        -3.582341
 C         2.565615         1.279307        -3.094163
 C         1.659227         0.358148        -2.173969
 C         1.445209         1.293257        -0.907625
 C         2.601844         2.214910        -0.864281
 C         1.378528         0.414130         0.405435
 O         0.356709         0.023585         0.949363
 H         4.822131         2.279493        -3.176524
 H         0.922275         2.988622        -3.540680
 H         2.651360         2.979849        -4.315689
 H         3.332199         0.716734        -3.575313
 H         0.595519         0.275220        -2.536689
 H         2.226151        -0.554069        -1.976836
 H         0.544123         1.906804        -0.952492
 H         2.317287         3.109545        -0.269413
 H         3.413646         1.781840        -0.293918
 H         2.519152         0.016836         0.710798
