19
Iteration:  4911
 O         4.280982         2.974784        -2.490967
 C         3.008130         2.428791        -2.421240
 C         2.216268         2.396096        -3.757843
 C         2.718105         1.058831        -3.123553
 C         1.808855         0.309539        -2.140916
 C         1.353415         1.180225        -0.988654
 C         2.308985         2.298290        -1.001453
 C         1.313381         0.414576         0.359333
 O         0.443180         0.354925         1.237969
 H         4.393602         3.970391        -2.436422
 H         1.108363         2.661314        -3.778698
 H         2.825883         2.721041        -4.661912
 H         3.632410         0.679930        -3.696449
 H         1.138480        -0.242493        -2.665415
 H         2.416452        -0.554222        -1.821211
 H         0.351277         1.574131        -1.154758
 H         1.944562         3.211080        -0.615566
 H         3.128008         1.901668        -0.351634
 H         2.260611        -0.224907         0.464922
