19
Iteration:  3931
 O         4.399089         3.024602        -2.551669
 C         3.185827         2.375612        -2.408971
 C         1.923233         2.349190        -3.350495
 C         2.616682         1.035279        -3.005647
 C         1.835817         0.219087        -2.113750
 C         1.316313         1.194145        -1.057779
 C         2.558560         2.398659        -0.978180
 C         1.357684         0.561699         0.311050
 O         0.329531         0.257347         0.902775
 H         4.261243         3.580691        -3.366808
 H         0.943260         2.757721        -3.053535
 H         2.225971         2.711927        -4.299401
 H         3.190059         0.578495        -3.725198
 H         1.130848        -0.389519        -2.619531
 H         2.542748        -0.371778        -1.542312
 H         0.234781         1.573903        -1.192736
 H         2.002152         3.304672        -0.529889
 H         3.506143         2.135012        -0.337047
 H         2.293564         0.011008         0.626350
