19
Iteration:  3737
 O         4.302470         3.011712        -2.411617
 C         3.002024         2.389739        -2.305555
 C         1.997445         2.421367        -3.495769
 C         2.641915         1.075738        -3.027310
 C         1.849977         0.133790        -2.237754
 C         1.337608         1.118139        -1.117559
 C         2.458270         2.254835        -0.953491
 C         1.357887         0.446073         0.207378
 O         0.501244         0.538737         1.078395
 H         4.443049         3.399448        -3.332768
 H         0.982083         2.784267        -3.370659
 H         2.464634         2.846266        -4.412407
 H         3.627370         0.734273        -3.467415
 H         0.980586        -0.342087        -2.815403
 H         2.547033        -0.701553        -2.065426
 H         0.455860         1.614988        -1.339600
 H         1.807448         3.050922        -0.602342
 H         3.330345         2.003889        -0.158907
 H         2.275752        -0.257051         0.402141
