19
Iteration:  4944charge 0 multiplicity 1
 O         4.357398         2.982456        -2.525007
 C         3.015833         2.408141        -2.338694
 C         2.091431         2.322200        -3.589342
 C         2.732500         1.040427        -3.127680
 C         1.796891         0.210277        -2.120317
 C         1.432062         1.216859        -1.010746
 C         2.346878         2.421371        -0.963332
 C         1.322196         0.446240         0.259305
 O         0.443519         0.357015         1.079118
 H         4.295199         3.971203        -2.600170
 H         0.988704         2.497897        -3.396661
 H         2.419089         2.697929        -4.576737
 H         3.419944         0.391199        -3.671770
 H         0.935472        -0.122886        -2.621387
 H         2.276601        -0.683515        -1.601677
 H         0.423651         1.545905        -1.007414
 H         1.843193         3.336769        -0.820501
 H         3.020526         2.335594        -0.114858
 H         2.231958        -0.178865         0.569023
