19
Iteration:   650
 O         4.322455         3.120542        -2.387027
 C         3.111666         2.278032        -2.431426
 C         1.990054         2.561181        -3.357352
 C         2.495035         1.110982        -3.229792
 C         1.697855         0.201751        -2.243165
 C         1.543978         1.153359        -0.975924
 C         2.586561         2.291603        -0.948409
 C         1.406035         0.362697         0.315538
 O         0.400275         0.354322         0.980503
 H         4.613020         3.241159        -3.339513
 H         1.023440         2.737355        -3.069440
 H         2.189250         3.133445        -4.226354
 H         3.026623         0.599026        -4.053501
 H         0.712684        -0.150777        -2.623853
 H         2.276316        -0.771620        -1.983304
 H         0.554922         1.560254        -1.000636
 H         2.061727         3.200763        -0.696022
 H         3.319992         1.739602        -0.251000
 H         2.204585        -0.385092         0.534997
