19
Iteration:   805
 O         4.332020         2.931027        -2.473177
 C         2.966777         2.426204        -2.419387
 C         2.013998         2.612469        -3.506668
 C         2.526122         1.169215        -3.132058
 C         1.744157         0.267585        -2.133329
 C         1.434340         1.187440        -0.937679
 C         2.606393         2.215356        -0.944823
 C         1.402630         0.309982         0.290720
 O         0.426932         0.309797         0.962422
 H         4.305076         3.893394        -2.559537
 H         1.121120         3.054255        -3.359867
 H         2.532109         2.828585        -4.440835
 H         3.211917         0.644140        -3.849822
 H         0.761735        -0.133203        -2.548281
 H         2.335587        -0.649593        -1.907955
 H         0.514170         1.708759        -1.027503
 H         2.405264         3.154945        -0.398097
 H         3.476557         1.634002        -0.471039
 H         2.373786        -0.240732         0.468462
