19
Iteration:   113
 O         4.188285         3.068370        -2.368388
 C         2.978741         2.384539        -2.336839
 C         2.219500         2.314658        -3.640964
 C         2.780396         1.067625        -3.050983
 C         1.660037         0.378070        -2.298476
 C         1.200207         1.210300        -1.063415
 C         2.292785         2.320686        -0.959068
 C         1.411934         0.418811         0.167426
 O         0.725145         0.371708         1.160748
 H         4.762309         2.424362        -1.907744
 H         1.071051         2.289455        -3.605315
 H         2.405009         2.885252        -4.550445
 H         3.575159         0.395972        -3.499541
 H         0.767979         0.063291        -2.854282
 H         2.138175        -0.539001        -1.902215
 H         0.190406         1.409262        -1.074368
 H         1.933062         3.270455        -0.539312
 H         3.095754         1.910118        -0.309268
 H         2.443482        -0.262555         0.092220
