19
Iteration:  1929
 O         4.328171         2.897745        -2.350617
 C         3.094626         2.321754        -2.374534
 C         2.100086         2.571252        -3.531158
 C         2.525501         1.155948        -3.207954
 C         1.752062         0.372921        -2.283506
 C         1.386072         1.196946        -1.010532
 C         2.439623         2.265276        -0.963080
 C         1.392298         0.293738         0.284713
 O         0.497195         0.350805         1.132862
 H         4.358575         3.768433        -2.808218
 H         1.052148         2.707809        -3.237916
 H         2.253487         2.895299        -4.612611
 H         3.030507         0.589219        -4.004438
 H         0.861087        -0.168760        -2.735979
 H         2.401735        -0.491131        -1.916162
 H         0.454519         1.678668        -1.192717
 H         2.072315         3.248221        -0.706312
 H         3.274052         1.967396        -0.323142
 H         2.274110        -0.299125         0.400645
