19
Iteration:  2665charge 0 multiplicity 1
 O         4.361890         2.895323        -2.644160
 C         3.075835         2.331895        -2.367223
 C         2.011441         2.471087        -3.501259
 C         2.583900         1.112494        -3.063510
 C         1.828154         0.266059        -2.065593
 C         1.434030         1.286137        -0.880957
 C         2.567627         2.344925        -1.008520
 C         1.317882         0.551262         0.342163
 O         0.332060         0.140450         0.875242
 H         4.461184         3.766706        -2.261574
 H         0.904744         2.571447        -3.268862
 H         2.369523         3.140124        -4.316701
 H         3.174164         0.448612        -3.775953
 H         0.910332        -0.086803        -2.378584
 H         2.477831        -0.494005        -1.548019
 H         0.430558         1.726754        -1.017409
 H         2.161491         3.408880        -0.895247
 H         3.362805         2.173732        -0.206950
 H         2.333507         0.401391         0.832846
