19
Iteration:  4632
 O         4.356402         2.946880        -2.630628
 C         3.047964         2.418983        -2.423301
 C         2.005797         2.387837        -3.517415
 C         2.657535         1.120359        -3.072941
 C         1.867062         0.202823        -2.040054
 C         1.475500         1.243134        -1.000703
 C         2.539236         2.342258        -0.870562
 C         1.259871         0.541354         0.343616
 O         0.292802         0.224266         0.980993
 H         4.200464         3.803706        -3.054281
 H         0.966161         2.520299        -3.355152
 H         2.367138         2.699381        -4.507628
 H         3.284235         0.477115        -3.848241
 H         1.015658        -0.277651        -2.572161
 H         2.521249        -0.728262        -1.785469
 H         0.551821         1.795644        -1.261481
 H         2.235204         3.445071        -0.583948
 H         3.461331         2.068715        -0.321924
 H         2.286857         0.380333         0.994884
