19
Iteration:  3072charge 0 multiplicity 1
 O         4.330961         3.006409        -2.461590
 C         2.997693         2.438824        -2.362670
 C         2.115057         2.397720        -3.594624
 C         2.691158         1.145790        -3.147014
 C         1.862707         0.222582        -2.240952
 C         1.324633         1.053420        -1.098904
 C         2.355264         2.288746        -0.944967
 C         1.270858         0.263443         0.280386
 O         0.553761         0.564641         1.214548
 H         4.271399         3.958258        -2.229056
 H         0.991038         2.371156        -3.659202
 H         2.630041         2.772108        -4.495639
 H         3.607179         0.746885        -3.728388
 H         1.024429        -0.252205        -2.773320
 H         2.367363        -0.622836        -1.694433
 H         0.290250         1.560379        -1.290228
 H         1.723625         3.149472        -0.516762
 H         3.150273         2.110743        -0.296075
 H         1.903443        -0.640190         0.281556
