19
Iteration:  1812
 O         4.337356         2.827100        -2.596067
 C         2.971905         2.434553        -2.391782
 C         1.992622         2.649110        -3.460191
 C         2.509710         1.305323        -3.220086
 C         1.873719         0.300037        -2.272542
 C         1.500124         1.096422        -0.989305
 C         2.642268         2.160705        -0.865892
 C         1.324357         0.327448         0.380736
 O         0.286515         0.317674         1.084307
 H         4.421005         3.797682        -2.338294
 H         1.062155         2.931996        -3.130343
 H         2.440245         3.188216        -4.313524
 H         3.306336         0.984058        -3.959535
 H         1.095398        -0.336257        -2.727925
 H         2.630780        -0.421894        -1.996518
 H         0.566055         1.650373        -1.172866
 H         2.256478         3.038390        -0.285672
 H         3.540111         1.722156        -0.465666
 H         2.429594        -0.152543         0.738875
