19
Iteration:  2193
 O         4.235429         3.109862        -2.566154
 C         3.081584         2.356263        -2.454348
 C         1.987064         2.434601        -3.458292
 C         2.623247         1.116318        -3.169040
 C         1.884707         0.255589        -2.058145
 C         1.527934         1.256555        -0.892896
 C         2.695304         2.244327        -0.953681
 C         1.301713         0.474153         0.412093
 O         0.180740         0.237401         0.902742
 H         4.940961         2.869698        -3.217073
 H         1.016784         2.330442        -3.064691
 H         2.144247         2.918009        -4.468847
 H         3.303499         0.622329        -3.858078
 H         0.885844        -0.061607        -2.500000
 H         2.405018        -0.637120        -1.722050
 H         0.611888         1.697312        -1.238092
 H         2.449700         3.237342        -0.479421
 H         3.579760         1.686926        -0.425897
 H         2.289254         0.142803         0.813414
