19
Iteration:  3319charge 0 multiplicity 1
 O         4.364144         2.990032        -2.603091
 C         3.027649         2.376607        -2.385331
 C         2.036787         2.452155        -3.494279
 C         2.667330         1.069134        -3.035959
 C         1.808114         0.219238        -2.128229
 C         1.394265         1.181078        -0.992760
 C         2.566113         2.323725        -0.911287
 C         1.293696         0.556898         0.347928
 O         0.333610         0.213756         0.963243
 H         4.290470         3.918978        -2.848838
 H         0.975575         2.504060        -3.169156
 H         2.248764         2.985400        -4.386480
 H         3.362110         0.747765        -3.894701
 H         0.876989        -0.206212        -2.613237
 H         2.432094        -0.610045        -1.753990
 H         0.523759         1.700868        -1.273542
 H         2.285330         3.238893        -0.552458
 H         3.484208         1.995881        -0.451592
 H         2.343359         0.319021         0.714368
