19
Iteration:  4077charge 0 multiplicity 1
 O         4.335277         2.834024        -2.627659
 C         3.002929         2.451829        -2.398367
 C         2.062090         2.383228        -3.632384
 C         2.623695         1.165362        -3.135071
 C         1.933705         0.306646        -2.078563
 C         1.450314         1.289393        -0.828592
 C         2.444271         2.423004        -0.916258
 C         1.347429         0.460462         0.449973
 O         0.256443         0.133407         0.942085
 H         4.514153         3.713435        -2.986849
 H         1.014937         2.774861        -3.755675
 H         2.556967         2.714302        -4.501343
 H         3.557488         0.679420        -3.667830
 H         1.263588        -0.304642        -2.681827
 H         2.646078        -0.421815        -1.846379
 H         0.473421         1.839357        -0.890433
 H         2.039323         3.393029        -0.613680
 H         3.356270         2.084266        -0.308468
 H         2.243709         0.286388         1.025902
