19
Iteration:  2811charge 0 multiplicity 1
 O         4.408756         2.684900        -2.596674
 C         3.012896         2.378121        -2.388562
 C         2.001456         2.482598        -3.518183
 C         2.580016         1.101573        -2.987624
 C         1.781689         0.336130        -2.009298
 C         1.362470         1.405070        -0.961239
 C         2.451132         2.534059        -0.976163
 C         1.446020         0.627679         0.405415
 O         0.426517        -0.024389         0.769582
 H         4.581464         3.620668        -2.304340
 H         0.953279         2.678758        -3.590252
 H         2.369312         2.635001        -4.473560
 H         3.348277         0.723703        -3.577354
 H         0.902223        -0.167323        -2.527233
 H         2.511981        -0.429444        -1.618047
 H         0.278891         1.656598        -1.132888
 H         1.987104         3.585981        -0.777260
 H         3.157610         2.306512        -0.108514
 H         2.435651         0.428668         0.894663
