19
Iteration:   370charge 0 multiplicity 1
 O         4.385517         2.832328        -2.696855
 C         2.940011         2.415970        -2.373080
 C         1.868663         2.637060        -3.385136
 C         2.593084         1.233594        -3.097473
 C         2.042520         0.197694        -2.168838
 C         1.581500         1.140628        -0.898674
 C         2.524990         2.352718        -0.920105
 C         1.368430         0.364034         0.452363
 O         0.216446         0.241011         0.860103
 H         4.438802         3.688806        -3.164568
 H         0.927148         2.912467        -3.129192
 H         2.222745         3.084023        -4.247113
 H         3.353183         0.965181        -3.870876
 H         1.047058        -0.253520        -2.508520
 H         2.621746        -0.680890        -1.802540
 H         0.516452         1.506838        -1.099740
 H         2.108563         3.351616        -0.675122
 H         3.428038         2.056498        -0.349602
 H         2.187028         0.093592         1.253035
