19
Iteration:  4456charge 0 multiplicity 1
 O         4.342736         2.939841        -2.594643
 C         3.110637         2.318016        -2.356194
 C         2.058886         2.404787        -3.428278
 C         2.729005         1.064680        -3.061225
 C         1.778056         0.294895        -2.141385
 C         1.268087         1.250953        -1.023686
 C         2.453664         2.338112        -1.015386
 C         1.397156         0.535519         0.343933
 O         0.406876         0.262268         0.994699
 H         4.185620         3.891624        -2.666665
 H         1.025174         2.438096        -3.402545
 H         2.420463         2.926122        -4.286571
 H         3.342925         0.507550        -3.607765
 H         0.921909        -0.113928        -2.663695
 H         2.328904        -0.474001        -1.681501
 H         0.237454         1.433697        -1.210921
 H         1.936376         3.280146        -0.662018
 H         3.129812         2.110300        -0.171313
 H         2.452549         0.286517         0.470695
