19
Iteration:  1933
 O         4.342780         2.885550        -2.359043
 C         3.067356         2.288627        -2.335884
 C         2.077925         2.568799        -3.509486
 C         2.540117         1.162283        -3.177515
 C         1.742776         0.365671        -2.281281
 C         1.384706         1.205475        -1.046643
 C         2.439540         2.278356        -1.009150
 C         1.398073         0.302736         0.278026
 O         0.510563         0.355986         1.108171
 H         4.209787         3.776862        -2.701076
 H         1.066766         2.782127        -3.213028
 H         2.283870         2.859983        -4.469436
 H         3.070005         0.604941        -3.989843
 H         0.865090        -0.185088        -2.653280
 H         2.365216        -0.426326        -1.874070
 H         0.414479         1.708322        -1.196597
 H         2.060193         3.304062        -0.678039
 H         3.309912         2.015276        -0.244089
 H         2.417091        -0.362634         0.359213
