19
Iteration:   620charge 0 multiplicity 1
 O         4.303393         2.938420        -2.463078
 C         2.986920         2.437084        -2.407225
 C         2.000721         2.510242        -3.560013
 C         2.643500         1.163741        -3.069382
 C         1.670646         0.344643        -2.150687
 C         1.457718         1.257597        -0.951893
 C         2.580186         2.296423        -0.892020
 C         1.390638         0.309800         0.236895
 O         0.445876         0.243084         1.003869
 H         4.483167         3.306033        -3.338038
 H         0.964547         2.509750        -3.399531
 H         2.312235         3.028279        -4.434724
 H         3.379878         0.624479        -3.656027
 H         0.773444         0.026751        -2.761844
 H         2.226629        -0.591585        -1.943577
 H         0.494842         1.786296        -0.808719
 H         2.404882         3.255183        -0.312298
 H         3.465360         1.743163        -0.434196
 H         2.258096        -0.416525         0.308562
