19
Iteration:  4973
 O         4.285631         2.891475        -2.535232
 C         2.980954         2.387877        -2.359991
 C         2.024634         2.445078        -3.456288
 C         2.768537         1.064073        -3.044882
 C         1.874835         0.132597        -2.123533
 C         1.396404         1.183573        -1.060971
 C         2.407064         2.381902        -0.981114
 C         1.398296         0.550461         0.283385
 O         0.393712         0.359353         0.971306
 H         4.193092         3.858184        -2.810307
 H         0.943890         2.583445        -3.265992
 H         2.359738         2.746189        -4.488446
 H         3.526617         0.446192        -3.632591
 H         0.986856        -0.182344        -2.788468
 H         2.426717        -0.534600        -1.400861
 H         0.347710         1.435259        -0.997040
 H         2.041632         3.427108        -0.798683
 H         3.206604         2.089715        -0.272099
 H         2.405580         0.375291         0.729400
