19
Iteration:  3517
 O         4.350826         2.942764        -2.590267
 C         3.061003         2.328723        -2.284131
 C         2.049866         2.391411        -3.410754
 C         2.628690         0.980378        -3.016432
 C         1.728924         0.286063        -2.063718
 C         1.397704         1.346750        -1.028648
 C         2.529268         2.402251        -0.958530
 C         1.384012         0.596579         0.262639
 O         0.430716         0.132677         0.847652
 H         4.069440         3.909237        -2.691418
 H         0.936959         2.439885        -3.163516
 H         2.350594         2.970284        -4.322494
 H         3.233804         0.426162        -3.662453
 H         0.753351        -0.114108        -2.428881
 H         2.279747        -0.527770        -1.631372
 H         0.556758         1.800030        -1.337183
 H         2.038240         3.357331        -1.034338
 H         3.049892         2.343629         0.041258
 H         2.396487         0.200287         0.436321
