19
Iteration:  3685charge 0 multiplicity 1
 O         4.320256         3.067257        -2.452232
 C         3.028969         2.431848        -2.379934
 C         2.105422         2.460516        -3.551946
 C         2.659115         1.079620        -3.166752
 C         1.847679         0.112047        -2.224597
 C         1.441273         1.067124        -1.024946
 C         2.494891         2.305470        -0.989767
 C         1.260653         0.393408         0.363368
 O         0.361900         0.477049         1.156418
 H         4.232566         3.800117        -3.130098
 H         1.070401         2.667957        -3.421650
 H         2.439419         2.637969        -4.558802
 H         3.155584         0.784432        -4.072600
 H         0.916716        -0.365342        -2.535818
 H         2.556688        -0.674928        -2.082172
 H         0.492956         1.498660        -1.230511
 H         2.161658         3.096100        -0.311494
 H         3.429338         1.974620        -0.453063
 H         2.090014        -0.312082         0.570067
