19
Iteration:    31
 O         4.309628         2.747319        -2.365808
 C         2.951558         2.472758        -2.419735
 C         1.958704         2.455034        -3.524092
 C         2.592395         1.150098        -3.134725
 C         2.024150         0.303995        -2.074399
 C         1.387696         1.199140        -1.093523
 C         2.318632         2.333596        -0.948794
 C         1.374933         0.433817         0.177534
 O         0.512197         0.370440         1.052126
 H         4.528418         3.201794        -3.230088
 H         1.026178         2.835999        -3.117585
 H         2.229210         2.639251        -4.532307
 H         3.354261         0.835418        -3.788757
 H         1.339542        -0.510653        -2.359999
 H         2.816199        -0.220900        -1.559555
 H         0.292489         1.516622        -1.409189
 H         1.782052         3.214713        -0.533450
 H         3.162233         2.247015        -0.283031
 H         2.537687         0.179950         0.385722
