19
Iteration:  2059charge 0 multiplicity 1
 O         4.310667         2.879800        -2.472653
 C         3.032705         2.367060        -2.294599
 C         2.015915         2.456634        -3.440608
 C         2.719126         1.150791        -3.053760
 C         1.694019         0.319234        -2.287391
 C         1.354566         1.280856        -0.997394
 C         2.496186         2.331622        -0.927187
 C         1.369991         0.515318         0.243232
 O         0.488472         0.173934         1.046938
 H         4.536822         3.024775        -3.425451
 H         0.866902         2.310969        -3.402179
 H         2.332624         2.865958        -4.423106
 H         3.453369         0.838280        -3.871351
 H         0.820151         0.168380        -2.894625
 H         2.169075        -0.569385        -1.950623
 H         0.372675         1.708069        -1.315188
 H         2.328331         3.380366        -0.783235
 H         3.274649         2.117083        -0.119883
 H         2.386739         0.240212         0.437233
