19
Iteration:   221
 O         4.263634         2.905254        -2.188136
 C         3.048878         2.255777        -2.378975
 C         2.068840         2.614621        -3.532556
 C         2.579528         1.196445        -3.189042
 C         1.855206         0.205846        -2.169454
 C         1.177209         1.035659        -1.182807
 C         2.299781         2.274181        -1.057814
 C         1.412939         0.475434         0.164113
 O         0.710953         0.458842         1.173175
 H         4.645532         2.961826        -3.054170
 H         1.009121         2.813305        -3.095627
 H         2.595895         3.043003        -4.396043
 H         3.189256         0.671704        -3.955774
 H         1.247296        -0.356068        -2.797364
 H         2.563009        -0.413344        -1.652483
 H         0.218592         1.421928        -1.383028
 H         1.689264         3.138841        -0.879307
 H         3.079281         2.222284        -0.295209
 H         2.380503        -0.013130         0.257065
