19
Iteration:  3030charge 0 multiplicity 1
 O         4.224651         3.114740        -2.343427
 C         2.952620         2.355165        -2.321910
 C         2.113541         2.434567        -3.536438
 C         2.679142         1.083174        -3.257643
 C         1.824914         0.186601        -2.346306
 C         1.443326         1.035738        -1.021568
 C         2.498957         2.095928        -0.933799
 C         1.321555         0.391562         0.334573
 O         0.447802         0.626264         1.118533
 H         4.143073         3.835870        -3.038755
 H         0.960417         2.437368        -3.643484
 H         2.700527         2.957783        -4.341152
 H         3.499289         0.544639        -3.810345
 H         0.885447        -0.249380        -2.748807
 H         2.487873        -0.649404        -2.239519
 H         0.380754         1.482666        -1.090243
 H         2.028873         3.057139        -0.526754
 H         3.326859         1.748652        -0.327087
 H         2.333308         0.005068         0.707338
