19
Iteration:  4182
 O         4.438814         2.929388        -2.571476
 C         3.041758         2.454857        -2.412702
 C         2.168814         2.449558        -3.686994
 C         2.614360         1.093406        -3.128097
 C         1.794126         0.290452        -2.109643
 C         1.376818         1.169519        -0.956832
 C         2.348883         2.356754        -0.996303
 C         1.298545         0.387700         0.379351
 O         0.380451         0.231679         1.176221
 H         4.286759         3.864950        -2.467217
 H         1.069656         2.668800        -3.510019
 H         2.659347         2.846019        -4.552685
 H         3.463319         0.491760        -3.679391
 H         0.865086        -0.208333        -2.494519
 H         2.721161        -0.303994        -2.026484
 H         0.373733         1.713443        -1.159365
 H         1.694839         3.257451        -0.776151
 H         3.145651         2.469277        -0.328511
 H         2.409477         0.194416         0.591705
