19
Iteration:  4863
 O         4.340746         2.923604        -2.380355
 C         3.012569         2.384483        -2.301980
 C         2.027680         2.410449        -3.511966
 C         2.751431         1.022028        -3.103614
 C         1.866676         0.198558        -2.163373
 C         1.319103         1.101711        -1.101521
 C         2.284662         2.357316        -1.045296
 C         1.406567         0.474091         0.224665
 O         0.534911         0.523624         1.052499
 H         4.184270         3.879971        -2.470423
 H         1.023001         2.476223        -3.138065
 H         2.248002         2.819552        -4.462732
 H         3.358072         0.491266        -3.807920
 H         1.035909        -0.263629        -2.843434
 H         2.227969        -0.872537        -1.869105
 H         0.274388         1.394573        -1.001305
 H         1.674501         3.299159        -0.980346
 H         3.050586         2.237608        -0.301068
 H         2.414702         0.011321         0.496584
