19
Iteration:   898charge 0 multiplicity 1
 O         4.314393         2.863404        -2.458740
 C         3.051911         2.343061        -2.470046
 C         2.059476         2.616803        -3.592873
 C         2.484448         1.144333        -3.145843
 C         1.700168         0.374400        -2.097919
 C         1.473953         1.343210        -0.843149
 C         2.565484         2.259803        -1.005839
 C         1.412426         0.444736         0.312078
 O         0.445116         0.056681         0.955490
 H         4.321427         3.539235        -1.737413
 H         1.100786         3.099703        -3.226582
 H         2.391762         2.966409        -4.630859
 H         3.097709         0.747242        -3.879635
 H         0.722493         0.082252        -2.473632
 H         2.205169        -0.587435        -1.751574
 H         0.415395         1.740033        -1.076635
 H         2.249651         3.358908        -0.862166
 H         3.500044         2.117226        -0.369496
 H         2.387133        -0.106615         0.513741
