19
Iteration:  4293charge 0 multiplicity 1
 O         4.274713         3.004612        -2.651211
 C         3.044595         2.439065        -2.400998
 C         2.160664         2.477871        -3.584211
 C         2.678189         1.186779        -3.117634
 C         1.911221         0.233797        -2.200832
 C         1.375107         1.034417        -1.026735
 C         2.549775         2.231995        -0.908682
 C         1.250807         0.286964         0.407312
 O         0.300858         0.495808         1.187800
 H         4.053243         3.921912        -2.351147
 H         1.085436         2.709047        -3.540683
 H         2.521339         2.657076        -4.598531
 H         3.250762         0.568092        -3.747171
 H         1.181936        -0.453127        -2.670516
 H         2.857482        -0.281046        -1.926418
 H         0.322749         1.407621        -1.332177
 H         1.991216         3.130513        -0.544884
 H         3.404435         2.068117        -0.302265
 H         1.991454        -0.410919         0.746403
