19
Iteration:   892
 O         4.282910         2.824215        -2.446488
 C         2.998047         2.342042        -2.458030
 C         2.054914         2.671551        -3.602755
 C         2.502208         1.122839        -3.158075
 C         1.708803         0.355301        -2.082738
 C         1.419799         1.313983        -0.873880
 C         2.603166         2.319836        -0.968483
 C         1.455750         0.463034         0.327840
 O         0.450240         0.072354         0.937970
 H         4.394584         3.530686        -1.835880
 H         1.066198         2.994216        -3.398982
 H         2.478836         2.964091        -4.535710
 H         3.151165         0.628499        -3.969376
 H         0.778260        -0.014912        -2.555843
 H         2.319544        -0.467025        -1.752916
 H         0.514870         1.797759        -1.096012
 H         2.369362         3.313501        -0.625722
 H         3.451058         2.045847        -0.372089
 H         2.347820        -0.204060         0.404562
