19
Iteration:   573charge 0 multiplicity 1
 O         4.447285         2.885191        -2.567991
 C         3.068073         2.375386        -2.413752
 C         2.089275         2.579562        -3.496730
 C         2.521915         1.143484        -3.172146
 C         1.677189         0.301793        -2.182781
 C         1.352809         1.281331        -0.951005
 C         2.464313         2.365217        -1.021469
 C         1.394527         0.480653         0.435782
 O         0.461178         0.027912         1.033861
 H         4.205260         3.760574        -2.247729
 H         1.123031         2.947119        -3.182117
 H         2.510344         2.929497        -4.417806
 H         3.293829         0.705059        -3.851177
 H         0.675587        -0.016147        -2.590571
 H         2.302549        -0.707846        -1.972682
 H         0.336059         1.662755        -1.082106
 H         1.991720         3.329041        -0.754819
 H         3.248701         2.119947        -0.150524
 H         2.482162         0.324933         0.751033
