19
Iteration:  1632
 O         4.371966         2.708451        -2.553030
 C         3.030639         2.350851        -2.369948
 C         1.952254         2.637531        -3.473889
 C         2.460499         1.231814        -3.107716
 C         1.714556         0.396992        -2.137713
 C         1.383282         1.324132        -0.871868
 C         2.598221         2.334007        -0.926090
 C         1.426690         0.544585         0.304851
 O         0.503713        -0.005009         0.808177
 H         4.604486         3.347961        -1.885777
 H         0.904422         2.897333        -3.210982
 H         2.305083         3.148150        -4.433792
 H         3.103234         0.522351        -3.676829
 H         0.750293        -0.018673        -2.560397
 H         2.362876        -0.486784        -1.828883
 H         0.505645         1.915155        -0.881915
 H         2.238747         3.247277        -0.465082
 H         3.520813         2.108535        -0.384661
 H         2.417412         0.216391         0.556420
