19
Iteration:  2932
 O         4.337534         3.050472        -2.511103
 C         3.071809         2.372457        -2.455021
 C         2.004849         2.504069        -3.492777
 C         2.590132         1.148038        -3.128521
 C         1.885788         0.202181        -2.154941
 C         1.520274         1.142443        -0.887264
 C         2.553633         2.268882        -0.973367
 C         1.296742         0.395412         0.403617
 O         0.239432         0.332793         0.972448
 H         4.728563         3.472049        -3.306062
 H         0.958046         2.793983        -3.391762
 H         2.276972         2.640120        -4.591188
 H         3.202888         0.632512        -3.957382
 H         0.994978        -0.441389        -2.307285
 H         2.655780        -0.523493        -1.895026
 H         0.472619         1.540850        -1.134613
 H         2.131006         3.314146        -0.658339
 H         3.537319         2.073987        -0.405149
 H         2.241355        -0.025010         0.863773
