19
Iteration:   764charge 0 multiplicity 1
 O         4.274066         2.998433        -2.657080
 C         3.108711         2.326696        -2.335432
 C         1.961136         2.557805        -3.428956
 C         2.666927         1.194875        -3.170411
 C         1.846350         0.336157        -2.281933
 C         1.401208         1.137651        -0.969714
 C         2.644609         2.107233        -0.869845
 C         1.303531         0.368922         0.317708
 O         0.353305         0.338341         1.099468
 H         4.267037         3.918812        -2.255208
 H         0.905908         2.778098        -3.180124
 H         2.254487         3.243003        -4.264615
 H         3.370985         0.945761        -4.001162
 H         0.949386         0.118936        -2.954073
 H         2.154827        -0.658910        -1.909787
 H         0.309523         1.538247        -1.102857
 H         2.343383         3.063691        -0.336220
 H         3.449036         1.512817        -0.370302
 H         2.284680        -0.195370         0.491722
