19
Iteration:  4360charge 0 multiplicity 1
 O         4.275041         2.990013        -2.529930
 C         3.068686         2.330001        -2.359981
 C         2.027061         2.532257        -3.400920
 C         2.650854         1.086991        -3.129302
 C         1.944103         0.103488        -2.171396
 C         1.418670         1.057686        -1.106456
 C         2.459539         2.248864        -0.973184
 C         1.341615         0.505144         0.359279
 O         0.355351         0.515722         1.011911
 H         4.263600         3.967760        -2.541667
 H         1.083738         2.622120        -3.024919
 H         2.020327         2.930761        -4.435252
 H         3.335110         0.754324        -3.837515
 H         1.115622        -0.386459        -2.689654
 H         2.649548        -0.652341        -1.710881
 H         0.371129         1.454856        -1.402188
 H         2.174145         3.225063        -0.579728
 H         3.203373         1.803722        -0.344305
 H         2.286232        -0.171618         0.571883
