19
Iteration:   432
 O         4.254896         3.042546        -2.456219
 C         2.990703         2.394007        -2.395865
 C         1.946461         2.384361        -3.521127
 C         2.524862         1.076896        -3.038821
 C         1.738211         0.336921        -2.060851
 C         1.459876         1.405723        -0.877850
 C         2.723951         2.216690        -0.919775
 C         1.419632         0.531259         0.248966
 O         0.383044         0.077913         0.778523
 H         4.659533         2.785704        -3.289706
 H         0.979465         2.634474        -3.142781
 H         2.296060         2.797582        -4.419652
 H         3.233924         0.616467        -3.764099
 H         0.773419        -0.021373        -2.455229
 H         2.334939        -0.460356        -1.731283
 H         0.561743         2.015680        -0.932293
 H         2.752040         3.243442        -0.508988
 H         3.603332         1.765900        -0.570983
 H         2.461555         0.549570         0.773940
