19
Iteration:  4807
 O         4.319233         2.927888        -2.461370
 C         2.883633         2.407532        -2.353723
 C         2.135881         2.493248        -3.728448
 C         2.685997         1.117984        -3.132657
 C         1.930826         0.194227        -2.192261
 C         1.350110         1.050393        -1.055465
 C         2.359979         2.249583        -0.989576
 C         1.321134         0.362616         0.367302
 O         0.448725         0.555798         1.182049
 H         4.230752         3.885572        -2.413325
 H         1.133872         2.795485        -3.786908
 H         2.572363         2.768922        -4.619151
 H         3.554203         0.794505        -3.572809
 H         1.201844        -0.471533        -2.719082
 H         2.850422        -0.216838        -1.682997
 H         0.329963         1.441805        -1.052319
 H         1.973888         3.147516        -0.424737
 H         3.212999         1.926996        -0.434325
 H         2.154104        -0.307140         0.531490
