19
Iteration:    59
 O         4.401632         2.954801        -2.280060
 C         3.042693         2.349268        -2.445227
 C         2.005248         2.595000        -3.596587
 C         2.605618         1.154409        -3.250549
 C         1.852650         0.116410        -2.249449
 C         1.339671         1.098201        -0.986012
 C         2.227728         2.366697        -1.115303
 C         1.452822         0.413129         0.429584
 O         0.489966         0.365899         1.159543
 H         4.809706         2.720780        -3.161145
 H         0.963412         3.047896        -3.474103
 H         2.560081         3.007492        -4.476122
 H         3.495145         0.895365        -3.925302
 H         1.033753        -0.554524        -2.601996
 H         2.701127        -0.445530        -1.745169
 H         0.314364         1.245330        -1.007172
 H         1.608574         3.291069        -1.123300
 H         3.041269         2.436025        -0.326060
 H         2.406087         0.116395         0.679244
