19
Iteration:    67charge 0 multiplicity 1
 O         4.372721         3.003205        -2.306608
 C         3.032052         2.386725        -2.438434
 C         2.123402         2.572101        -3.621141
 C         2.603379         1.156383        -3.254851
 C         1.789983         0.182475        -2.248104
 C         1.314584         1.040305        -0.952877
 C         2.207908         2.302415        -1.102826
 C         1.499311         0.388887         0.444704
 O         0.498363         0.392560         1.141207
 H         4.993261         2.699924        -3.030590
 H         1.157962         2.983770        -3.458368
 H         2.465733         2.954447        -4.599413
 H         3.335441         0.635381        -3.941608
 H         0.993254        -0.378721        -2.701673
 H         2.528357        -0.517650        -1.863262
 H         0.285761         1.334100        -1.009907
 H         1.480403         3.088551        -1.004330
 H         2.895788         2.374110        -0.268579
 H         2.596635         0.155387         0.952243
