19
Iteration:   879
 O         4.351131         2.750624        -2.525924
 C         2.953053         2.443892        -2.341104
 C         2.037914         2.584356        -3.534940
 C         2.496839         1.214533        -3.144881
 C         1.711363         0.333776        -2.158237
 C         1.393202         1.317736        -0.965480
 C         2.544345         2.357008        -0.910162
 C         1.462748         0.382397         0.272014
 O         0.460055         0.129293         0.952453
 H         4.393643         3.660754        -2.089793
 H         1.039073         2.819443        -3.634923
 H         2.701022         3.026132        -4.310254
 H         3.161111         0.572960        -3.768817
 H         0.906717        -0.292891        -2.383452
 H         2.456146        -0.357125        -1.771582
 H         0.437352         1.703968        -0.886856
 H         2.367388         3.204303        -0.347010
 H         3.370001         1.806216        -0.564696
 H         2.507209         0.171615         0.653267
