19
Iteration:   196charge 0 multiplicity 1
 O         4.305573         2.801401        -2.191430
 C         2.891867         2.458671        -2.330636
 C         2.149946         2.517368        -3.594569
 C         2.549763         1.188563        -3.224077
 C         1.799138         0.174010        -2.351370
 C         1.368625         1.024811        -1.126440
 C         2.186421         2.362950        -1.054251
 C         1.517185         0.376612         0.309022
 O         0.660084         0.515941         1.157277
 H         4.431476         3.416351        -2.918289
 H         1.218748         2.786473        -3.330894
 H         2.688817         3.052366        -4.308975
 H         3.524279         0.794100        -3.623229
 H         0.838851        -0.126014        -2.820838
 H         2.413918        -0.747683        -2.185235
 H         0.224397         1.115358        -1.203759
 H         1.652923         3.184013        -0.554238
 H         3.035427         2.184710        -0.324794
 H         2.485633         0.036326         0.630229
