19
Iteration:  3743
 O         4.316281         3.026257        -2.397692
 C         3.009452         2.388538        -2.383492
 C         2.035942         2.491373        -3.530196
 C         2.696852         1.108993        -3.078902
 C         1.834590         0.149348        -2.220081
 C         1.339292         1.034521        -1.065862
 C         2.449227         2.231826        -0.947139
 C         1.298319         0.409392         0.251089
 O         0.500412         0.534417         1.119037
 H         4.454964         3.412000        -3.281946
 H         0.968047         2.758875        -3.433460
 H         2.459087         2.763429        -4.513315
 H         3.507432         0.629681        -3.641654
 H         0.929192        -0.215954        -2.654224
 H         2.480542        -0.700310        -1.893000
 H         0.279184         1.503607        -1.374506
 H         1.773551         3.092044        -0.723630
 H         3.351887         2.085207        -0.406021
 H         2.283223        -0.051411         0.423333
