19
Iteration:  3152charge 0 multiplicity 1
 O         4.208307         2.962695        -2.337359
 C         2.920107         2.404164        -2.371070
 C         2.177765         2.556093        -3.639764
 C         2.696437         1.154034        -3.181758
 C         1.841562         0.097801        -2.392410
 C         1.423360         0.937705        -1.092826
 C         2.302522         2.147499        -0.938366
 C         1.359104         0.342039         0.336148
 O         0.545670         0.727511         1.242738
 H         4.352567         3.870375        -2.711129
 H         1.083948         2.768984        -3.542783
 H         2.857073         3.303459        -4.149512
 H         3.393583         0.590581        -3.699528
 H         1.054530        -0.477084        -2.952486
 H         2.559878        -0.641180        -2.031754
 H         0.357466         1.374894        -1.301361
 H         1.836350         3.051474        -0.592449
 H         3.207485         1.926114        -0.439989
 H         2.098347        -0.465340         0.641253
