19
Iteration:  3254
 O         4.402220         2.935688        -2.605915
 C         2.980283         2.489856        -2.442278
 C         2.019366         2.525243        -3.572329
 C         2.654872         1.213482        -3.101473
 C         2.001876         0.165757        -2.180450
 C         1.454015         1.049316        -1.004979
 C         2.503749         2.325555        -0.990280
 C         1.188692         0.243877         0.397592
 O         0.299636         0.453832         1.210392
 H         4.282483         3.784101        -2.179770
 H         0.963240         2.862924        -3.461496
 H         2.524552         2.877737        -4.427521
 H         3.128390         0.669626        -4.012135
 H         1.084612        -0.273488        -2.621097
 H         2.785789        -0.552102        -1.995146
 H         0.547338         1.424291        -1.386625
 H         1.993785         3.155319        -0.638894
 H         3.451001         2.305206        -0.411135
 H         1.890303        -0.632078         0.532586
