19
Iteration:  1495
 O         4.349514         2.893182        -2.584906
 C         3.096193         2.420146        -2.403548
 C         2.050991         2.688980        -3.339516
 C         2.485979         1.281527        -3.223452
 C         1.812571         0.304116        -2.253247
 C         1.481582         1.040450        -0.944584
 C         2.600473         2.255488        -1.009784
 C         1.327488         0.298242         0.425583
 O         0.308161         0.211540         1.071318
 H         4.308087         3.467415        -3.412599
 H         1.066261         2.951919        -2.977348
 H         2.535700         3.336831        -4.086868
 H         2.906416         0.796086        -4.126570
 H         0.832470         0.092322        -2.638186
 H         2.518488        -0.616654        -2.103142
 H         0.441527         1.555120        -1.049213
 H         2.280836         3.219945        -0.481819
 H         3.428123         2.086279        -0.206732
 H         2.410188        -0.034243         0.619765
