19
Iteration:   626charge 0 multiplicity 1
 O         4.283141         2.955844        -2.410869
 C         2.994892         2.426482        -2.423891
 C         2.000122         2.468253        -3.518025
 C         2.620784         1.170424        -3.063646
 C         1.690296         0.360389        -2.191226
 C         1.464184         1.216742        -0.904706
 C         2.663796         2.306834        -0.921760
 C         1.397842         0.296787         0.190348
 O         0.435580         0.282790         0.991830
 H         4.424766         3.260889        -3.301974
 H         0.866330         2.576093        -3.317021
 H         2.228345         3.005276        -4.474077
 H         3.135781         0.548700        -3.836198
 H         0.759843         0.081451        -2.661493
 H         2.153717        -0.619061        -1.898003
 H         0.492035         1.707432        -0.923674
 H         2.141971         3.165686        -0.529639
 H         3.540541         1.858953        -0.393684
 H         2.294148        -0.343187         0.377461
