19
Iteration:   360charge 0 multiplicity 1
 O         4.312419         2.820203        -2.637741
 C         3.008445         2.477517        -2.381401
 C         1.868917         2.576148        -3.428642
 C         2.553804         1.239404        -3.119440
 C         1.994239         0.181271        -2.122271
 C         1.557063         1.107075        -0.857154
 C         2.554136         2.300122        -0.931048
 C         1.384925         0.429432         0.385450
 O         0.259796         0.300128         0.819725
 H         4.425464         3.789761        -2.515088
 H         0.947234         2.770125        -2.992862
 H         2.228032         3.057239        -4.309732
 H         3.177712         0.923297        -3.979763
 H         1.150426        -0.379155        -2.597378
 H         2.842313        -0.530039        -1.880528
 H         0.505468         1.441011        -1.081094
 H         2.124552         3.104959        -0.333011
 H         3.511774         2.024455        -0.397185
 H         2.382219         0.143196         0.952406
