19
Iteration:  4038charge 0 multiplicity 1
 O         4.353036         2.971718        -2.621481
 C         3.076762         2.326316        -2.391211
 C         1.932648         2.310311        -3.351864
 C         2.608436         1.037224        -3.077324
 C         1.930257         0.199482        -2.074082
 C         1.375657         1.371636        -0.965591
 C         2.563732         2.371648        -0.976245
 C         1.368583         0.592360         0.307789
 O         0.319016         0.199584         0.810987
 H         4.327734         3.744299        -2.039868
 H         0.981916         2.818978        -3.078586
 H         2.357211         2.727189        -4.309886
 H         3.158967         0.687576        -3.891679
 H         0.959589        -0.279491        -2.220136
 H         2.545672        -0.530976        -1.437455
 H         0.379420         1.636346        -1.230904
 H         2.131756         3.370750        -0.709818
 H         3.250021         2.194562        -0.175609
 H         2.398103         0.381894         0.722393
