19
Iteration:  1653charge 0 multiplicity 1
 O         4.406866         2.766157        -2.547521
 C         3.113486         2.399780        -2.407961
 C         1.952817         2.630640        -3.326064
 C         2.448252         1.209050        -3.112029
 C         1.669881         0.306686        -2.087264
 C         1.377362         1.334727        -0.959711
 C         2.562051         2.419137        -1.018220
 C         1.462071         0.466341         0.277699
 O         0.496744         0.029699         0.798150
 H         4.568952         2.864403        -1.559168
 H         0.988507         2.987460        -2.990604
 H         2.131109         2.927605        -4.413558
 H         2.887121         0.632677        -3.993598
 H         0.706333        -0.208910        -2.300845
 H         2.203810        -0.646944        -1.737347
 H         0.431985         1.883463        -1.053278
 H         2.212606         3.346371        -0.570758
 H         3.391656         1.932187        -0.327354
 H         2.511879         0.350537         0.856150
