19
Iteration:  1009charge 0 multiplicity 1
 O         4.349859         2.932575        -2.484805
 C         3.051757         2.321589        -2.436535
 C         2.043522         2.654950        -3.404585
 C         2.499731         1.153514        -3.212050
 C         1.713228         0.261083        -2.217946
 C         1.506780         1.297517        -0.812068
 C         2.580942         2.301937        -1.002156
 C         1.430915         0.428057         0.392096
 O         0.322370         0.090938         0.899662
 H         4.384190         3.380125        -3.365949
 H         1.107677         2.934800        -2.973347
 H         2.337499         3.118101        -4.312519
 H         3.124083         0.609924        -3.996031
 H         0.807930        -0.065317        -2.573918
 H         2.391821        -0.584084        -1.855286
 H         0.505396         1.649013        -0.858760
 H         2.323848         3.310243        -0.680986
 H         3.467569         2.146875        -0.296147
 H         2.385525         0.098886         0.927050
