19
Iteration:  3307charge 0 multiplicity 1
 O         4.278507         2.911603        -2.559601
 C         3.065513         2.385839        -2.318071
 C         2.002761         2.480026        -3.442821
 C         2.633205         1.135826        -3.027026
 C         1.826375         0.144093        -2.129310
 C         1.473991         1.271594        -1.100109
 C         2.508454         2.242974        -0.894794
 C         1.404922         0.595528         0.269907
 O         0.372531         0.304195         0.902282
 H         4.000241         3.821504        -2.701009
 H         0.953523         2.575089        -3.113376
 H         2.131567         2.724001        -4.444967
 H         3.417444         0.548810        -3.682111
 H         0.867687        -0.357676        -2.479899
 H         2.493376        -0.667596        -1.771201
 H         0.543156         1.667108        -1.403748
 H         2.084213         3.041303        -0.367946
 H         3.229511         1.827719        -0.209754
 H         2.398443         0.305673         0.725860
