19
Iteration:  1198
 O         4.261791         2.812990        -2.513148
 C         3.000353         2.374088        -2.365523
 C         1.947487         2.574002        -3.535443
 C         2.573899         1.279539        -3.105656
 C         1.747406         0.299453        -2.226475
 C         1.547168         1.173646        -0.942214
 C         2.591945         2.322642        -0.940351
 C         1.451510         0.357650         0.345240
 O         0.361119         0.248713         0.967137
 H         4.652432         3.427782        -1.907902
 H         0.892090         2.783534        -3.402651
 H         2.472596         3.071490        -4.399079
 H         3.292215         0.936609        -3.774408
 H         0.921687        -0.040874        -2.770292
 H         2.530788        -0.546384        -2.131863
 H         0.588557         1.701309        -1.105884
 H         2.046819         3.164440        -0.485006
 H         3.530489         2.231911        -0.259767
 H         2.298767        -0.289059         0.549454
