19
Iteration:  3127
 O         4.310817         2.872819        -2.377398
 C         2.983872         2.385366        -2.390788
 C         2.079441         2.457675        -3.638705
 C         2.657848         1.208597        -3.091721
 C         1.997766         0.202190        -2.302427
 C         1.296557         1.030616        -1.021296
 C         2.230427         2.277163        -0.952858
 C         1.261177         0.289164         0.227446
 O         0.634423         0.649042         1.190945
 H         4.292850         3.884879        -2.304171
 H         1.033214         2.708323        -3.276103
 H         2.520150         2.827161        -4.562230
 H         3.452235         0.730353        -3.681380
 H         1.336308        -0.347533        -2.996939
 H         2.697857        -0.612023        -1.910574
 H         0.214049         1.486118        -1.195194
 H         1.632198         3.220384        -0.647867
 H         3.090210         2.107874        -0.367550
 H         2.043467        -0.550564         0.312792
