19
Iteration:  2592
 O         4.377745         2.983586        -2.554823
 C         3.073393         2.330692        -2.399264
 C         1.973837         2.440205        -3.372506
 C         2.566922         1.098065        -3.054039
 C         1.875885         0.263583        -2.031605
 C         1.358897         1.177405        -1.008745
 C         2.601676         2.252161        -1.033979
 C         1.326863         0.476216         0.242070
 O         0.367164         0.370345         0.939515
 H         4.094703         3.925379        -2.631911
 H         1.022729         2.722103        -3.021272
 H         2.300307         2.901327        -4.307701
 H         3.245990         0.659692        -3.862554
 H         0.896769        -0.314636        -2.518849
 H         2.588301        -0.591807        -1.621775
 H         0.437853         1.617267        -1.434502
 H         2.029753         3.117954        -0.680156
 H         3.333806         2.001399        -0.225875
 H         2.320318        -0.153007         0.378373
