19
Iteration:  3926charge 0 multiplicity 1
 O         4.395589         3.002979        -2.552421
 C         3.145875         2.395293        -2.386775
 C         1.945403         2.346106        -3.361633
 C         2.643550         1.071905        -3.027168
 C         1.856977         0.222794        -2.124127
 C         1.294924         1.235670        -1.051308
 C         2.526797         2.361709        -0.966466
 C         1.373741         0.553808         0.315886
 O         0.328629         0.266631         0.921730
 H         4.259029         3.522268        -3.331053
 H         0.893897         2.611020        -3.085943
 H         2.310361         2.718389        -4.367962
 H         3.175725         0.484492        -3.904291
 H         1.092394        -0.367553        -2.738008
 H         2.632446        -0.483227        -1.678552
 H         0.261310         1.450357        -1.067796
 H         2.181635         3.331687        -0.598218
 H         3.337190         2.074740        -0.336417
 H         2.338264         0.106951         0.753216
