19
Iteration:  2390
 O         4.245950         2.933397        -2.377042
 C         2.988290         2.387105        -2.382419
 C         2.105889         2.411328        -3.541850
 C         2.714467         1.104456        -3.080366
 C         1.725890         0.256444        -2.179555
 C         1.286505         1.182447        -1.051722
 C         2.401392         2.246684        -0.926656
 C         1.454943         0.487456         0.201045
 O         0.546724         0.407094         1.044647
 H         4.806752         3.209629        -3.119495
 H         0.995591         2.578938        -3.416513
 H         2.521374         2.871301        -4.481190
 H         3.488319         0.585183        -3.681873
 H         0.752247         0.057562        -2.608087
 H         2.134803        -0.760693        -1.706956
 H         0.303451         1.693293        -1.087027
 H         2.004500         3.255612        -0.722762
 H         3.200319         2.149763        -0.225946
 H         2.497745         0.010462         0.248836
