19
Iteration:  3688
 O         4.310076         3.066968        -2.449429
 C         3.049564         2.410217        -2.355613
 C         2.090046         2.432530        -3.544296
 C         2.665917         1.111419        -3.155266
 C         1.832806         0.118565        -2.240824
 C         1.464261         1.081915        -1.029534
 C         2.489214         2.283122        -0.996153
 C         1.264147         0.411865         0.350086
 O         0.373558         0.477963         1.147385
 H         4.253777         3.730699        -3.115661
 H         1.017774         2.631459        -3.354082
 H         2.406753         2.733467        -4.527301
 H         3.179967         0.765110        -4.010464
 H         0.943756        -0.398647        -2.570175
 H         2.570726        -0.703739        -1.962482
 H         0.355388         1.521988        -1.214838
 H         2.140309         3.202294        -0.424487
 H         3.371538         1.994627        -0.536213
 H         2.067986        -0.374910         0.552997
