19
Iteration:   737charge 0 multiplicity 1
 O         4.402077         3.058001        -2.582340
 C         3.135647         2.384981        -2.364492
 C         1.957041         2.631401        -3.312342
 C         2.425419         1.107515        -3.167626
 C         1.779792         0.142440        -2.199220
 C         1.522893         1.056509        -1.003425
 C         2.636676         2.256174        -0.913481
 C         1.312883         0.238796         0.223690
 O         0.363728         0.441167         1.005202
 H         4.218184         4.052016        -2.547069
 H         1.060775         3.091282        -2.856433
 H         2.222877         3.022028        -4.273003
 H         3.027562         0.847066        -4.011209
 H         0.870783        -0.320894        -2.576608
 H         2.383402        -0.716144        -1.834102
 H         0.595610         1.491581        -1.161035
 H         2.038460         3.098099        -0.615541
 H         3.475454         2.143507        -0.162251
 H         2.130601        -0.500644         0.444464
