19
Iteration:   256charge 0 multiplicity 1
 O         4.286617         3.006435        -2.334898
 C         3.002525         2.415558        -2.343740
 C         2.016683         2.453516        -3.620512
 C         2.658578         1.179538        -3.108424
 C         1.837266         0.264748        -2.268052
 C         1.348017         1.059136        -1.048125
 C         2.454180         2.304753        -0.956771
 C         1.335943         0.292002         0.228761
 O         0.566546         0.475810         1.169849
 H         4.788123         2.565897        -3.014220
 H         0.861030         2.674121        -3.510242
 H         2.257742         3.062028        -4.579420
 H         3.368753         0.780397        -3.815916
 H         0.949508        -0.052965        -2.817856
 H         2.355480        -0.645849        -2.024423
 H         0.342800         1.390820        -1.210486
 H         1.832283         3.195310        -0.694536
 H         3.190539         2.146952        -0.168744
 H         2.086869        -0.444725         0.229534
