19
Iteration:    91
 O         4.194782         3.038500        -2.328621
 C         2.938388         2.351028        -2.333118
 C         2.175658         2.450904        -3.632544
 C         2.692826         1.113199        -3.105495
 C         1.685008         0.200120        -2.363654
 C         1.386334         1.097384        -1.024309
 C         2.299056         2.363700        -1.017241
 C         1.467277         0.436478         0.315395
 O         0.594049         0.389569         1.171860
 H         4.916845         2.444669        -2.636110
 H         1.196462         2.896335        -3.910788
 H         2.913084         2.758797        -4.382291
 H         3.577994         0.666266        -3.663000
 H         0.722571         0.138539        -2.891546
 H         2.040262        -0.833341        -2.195213
 H         0.396928         1.401725        -1.124765
 H         1.696380         3.242179        -0.761024
 H         3.118002         2.272901        -0.269284
 H         2.578783         0.024792         0.621689
