19
Iteration:  1243
 O         4.376240         2.963720        -2.508078
 C         3.049805         2.291534        -2.370367
 C         2.080806         2.618668        -3.375380
 C         2.566575         1.157841        -3.110007
 C         1.773654         0.284485        -2.280785
 C         1.339231         1.285445        -1.073151
 C         2.539589         2.271127        -0.940745
 C         1.285743         0.387122         0.242481
 O         0.481238         0.168564         1.141197
 H         4.091276         3.560136        -3.187022
 H         1.002856         2.998413        -3.126043
 H         2.354287         2.888079        -4.391892
 H         2.999026         0.545191        -3.868679
 H         0.884425        -0.042585        -2.757150
 H         2.502926        -0.505747        -1.839094
 H         0.264134         1.610767        -1.381996
 H         2.447025         3.310035        -0.503013
 H         3.280155         1.937796        -0.139858
 H         2.350513         0.028759         0.302806
