19
Iteration:  1982
 O         4.363183         2.835172        -2.521851
 C         3.022315         2.414335        -2.346060
 C         2.043966         2.539512        -3.549528
 C         2.646943         1.193668        -3.112291
 C         1.757521         0.327357        -2.315505
 C         1.273122         1.171492        -0.966006
 C         2.372991         2.320157        -0.985080
 C         1.402495         0.420526         0.290492
 O         0.524662         0.256729         1.146531
 H         5.020640         2.660062        -1.802988
 H         0.953132         2.757343        -3.404684
 H         2.554827         3.253835        -4.325239
 H         3.491817         0.741556        -3.653592
 H         0.949507         0.034523        -2.986444
 H         2.181407        -0.592521        -1.937557
 H         0.243935         1.576819        -1.137788
 H         2.020538         3.289498        -0.717146
 H         3.115441         2.135038        -0.237031
 H         2.546187         0.033431         0.350392
