19
Iteration:  4942charge 0 multiplicity 1
 O         4.356959         2.991365        -2.522618
 C         3.010007         2.407308        -2.350733
 C         2.092738         2.342224        -3.597306
 C         2.734363         1.020853        -3.121107
 C         1.789713         0.228029        -2.115027
 C         1.420446         1.201791        -1.000587
 C         2.359655         2.435283        -0.968178
 C         1.311988         0.439251         0.259975
 O         0.447700         0.353830         1.091655
 H         4.327359         3.937805        -2.576452
 H         0.988574         2.505576        -3.439203
 H         2.453832         2.688361        -4.615977
 H         3.484834         0.382195        -3.703968
 H         0.963223        -0.245024        -2.674201
 H         2.264394        -0.761795        -1.642221
 H         0.438290         1.562538        -1.041514
 H         1.861737         3.361563        -0.801380
 H         3.039959         2.344646        -0.140262
 H         2.197723        -0.185419         0.581793
