19
Iteration:  2091charge 0 multiplicity 1
 O         4.366173         2.909340        -2.581699
 C         3.076992         2.393354        -2.356880
 C         2.109619         2.542475        -3.458488
 C         2.548906         1.152391        -3.061899
 C         1.749515         0.276397        -2.106972
 C         1.384355         1.196580        -0.927124
 C         2.484694         2.323700        -1.023889
 C         1.363898         0.446265         0.313928
 O         0.398338         0.193355         0.948807
 H         4.400942         3.860570        -2.703066
 H         1.016987         2.863094        -3.244819
 H         2.461628         2.810920        -4.473411
 H         3.181243         0.638642        -3.851075
 H         0.892814        -0.269625        -2.467675
 H         2.420860        -0.504928        -1.751831
 H         0.340214         1.582533        -1.184409
 H         2.194097         3.362919        -0.799629
 H         3.355493         1.963396        -0.311930
 H         2.404017         0.076654         0.702898
