19
Iteration:   692charge 0 multiplicity 1
 O         4.308364         2.841301        -2.504812
 C         2.976950         2.465505        -2.311441
 C         1.892033         2.645403        -3.468699
 C         2.571588         1.323532        -3.205393
 C         1.998136         0.203534        -2.276667
 C         1.412492         1.097705        -1.036333
 C         2.627532         2.092273        -0.834008
 C         1.278338         0.416254         0.325316
 O         0.375969         0.385800         1.094234
 H         4.309379         3.250966        -3.419794
 H         0.759442         2.621104        -3.223843
 H         2.123258         3.426794        -4.247292
 H         3.303453         0.965108        -3.966927
 H         1.224964        -0.424069        -2.655281
 H         2.866468        -0.460147        -2.167102
 H         0.489236         1.580624        -1.322943
 H         2.539452         3.000274        -0.235665
 H         3.567289         1.587047        -0.657790
 H         2.292279        -0.102091         0.498004
