19
Iteration:  1093charge 0 multiplicity 1
 O         4.300303         3.019687        -2.481683
 C         3.072500         2.380181        -2.419781
 C         2.002027         2.586681        -3.416719
 C         2.435336         1.151913        -3.128894
 C         1.775702         0.199116        -2.151624
 C         1.606576         1.215520        -0.844487
 C         2.691108         2.299724        -0.981315
 C         1.376776         0.340644         0.372392
 O         0.291939         0.239642         0.844012
 H         4.448787         3.558957        -3.243948
 H         1.041990         3.014081        -3.040272
 H         2.216842         2.968891        -4.496275
 H         3.080044         0.831673        -3.962849
 H         0.692837        -0.201055        -2.497819
 H         2.382246        -0.690028        -1.997921
 H         0.536583         1.590719        -0.974840
 H         2.410283         3.293032        -0.523724
 H         3.535296         1.854408        -0.467691
 H         2.173654        -0.447420         0.589761
