19
Iteration:    77
 O         4.268428         3.023928        -2.324298
 C         3.031648         2.408227        -2.414796
 C         2.228935         2.538011        -3.653499
 C         2.572852         1.132355        -3.147051
 C         1.764431         0.279378        -2.257629
 C         1.382806         0.951077        -1.016380
 C         2.225869         2.297027        -1.060663
 C         1.480538         0.445320         0.414583
 O         0.527801         0.390262         1.150935
 H         4.902668         2.544256        -2.901203
 H         1.229808         2.706511        -3.434349
 H         2.685094         2.842052        -4.604805
 H         3.050980         0.518781        -3.926706
 H         0.893264        -0.067486        -2.796277
 H         2.310875        -0.627641        -2.140103
 H         0.303820         1.228890        -1.058789
 H         1.634373         3.189206        -0.931883
 H         2.907935         2.368257        -0.230249
 H         2.614235         0.070618         0.771305
