19
Iteration:  4526charge 0 multiplicity 1
 O         4.381712         2.828269        -2.581558
 C         3.009445         2.392117        -2.396858
 C         2.097836         2.451167        -3.518178
 C         2.594700         1.117420        -3.017635
 C         1.808458         0.203430        -2.009867
 C         1.421057         1.269974        -1.021991
 C         2.447402         2.529686        -1.036271
 C         1.346887         0.544565         0.349709
 O         0.366741         0.113225         0.977886
 H         4.387349         3.790731        -2.655975
 H         1.057143         2.765406        -3.449935
 H         2.525255         2.737049        -4.494628
 H         3.197904         0.495448        -3.825965
 H         0.959110        -0.344421        -2.405034
 H         2.511193        -0.491543        -1.550567
 H         0.362572         1.619712        -1.153754
 H         2.140375         3.539651        -0.964000
 H         3.246736         2.409213        -0.292668
 H         2.442554         0.310238         0.598465
