19
Iteration:  3077
 O         4.304323         2.990272        -2.453883
 C         3.018927         2.400276        -2.356673
 C         2.080678         2.390855        -3.591008
 C         2.746411         1.127407        -3.126343
 C         1.849535         0.230551        -2.208872
 C         1.312078         1.092954        -1.171149
 C         2.362714         2.351847        -0.950628
 C         1.303459         0.271115         0.237275
 O         0.556849         0.554348         1.223712
 H         4.245944         3.888229        -2.112793
 H         0.985319         2.515250        -3.469740
 H         2.601079         2.753400        -4.467636
 H         3.430235         0.762189        -3.816873
 H         1.025708        -0.358922        -2.663211
 H         2.419472        -0.527476        -1.689167
 H         0.329876         1.483559        -1.222933
 H         1.679999         3.102989        -0.634228
 H         3.136274         2.080518        -0.109264
 H         1.806510        -0.775618         0.215427
