19
Iteration:  3957
 O         4.288505         2.963643        -2.581220
 C         3.097624         2.372662        -2.422078
 C         2.008825         2.442643        -3.465794
 C         2.619190         1.052766        -3.087402
 C         1.948051         0.239686        -2.047216
 C         1.476243         1.303347        -0.896873
 C         2.569542         2.385111        -0.958941
 C         1.313158         0.470633         0.378580
 O         0.248162         0.233056         0.885289
 H         4.152534         3.616256        -3.329475
 H         0.957184         2.646406        -3.437876
 H         2.483392         2.835455        -4.403145
 H         3.148191         0.468044        -3.924904
 H         0.971761        -0.237008        -2.378153
 H         2.592825        -0.579983        -1.674801
 H         0.401516         1.579161        -1.090946
 H         2.196906         3.309454        -0.596647
 H         3.423240         2.080062        -0.419374
 H         2.207981        -0.059454         0.722008
