19
Iteration:  3668charge 0 multiplicity 1
 O         4.296483         3.048474        -2.515169
 C         3.035664         2.434716        -2.450387
 C         2.103832         2.529029        -3.685783
 C         2.585035         1.119110        -3.168539
 C         1.911736         0.200172        -2.161761
 C         1.454590         1.036028        -0.965805
 C         2.514978         2.158297        -0.915638
 C         1.261214         0.339664         0.416078
 O         0.328080         0.470686         1.139544
 H         4.285353         3.977875        -2.858057
 H         1.094313         3.051552        -3.666444
 H         2.719055         2.921821        -4.504636
 H         3.358748         0.541926        -3.663069
 H         1.066775        -0.298268        -2.703958
 H         2.517892        -0.662521        -1.706957
 H         0.351412         1.460393        -1.175903
 H         2.088166         3.153499        -0.640655
 H         3.429877         1.914642        -0.366097
 H         2.201841        -0.160823         0.817206
