19
Iteration:   998charge 0 multiplicity 1
 O         4.351309         2.919896        -2.434262
 C         3.136623         2.341007        -2.480886
 C         1.975888         2.651642        -3.439841
 C         2.504530         1.143152        -3.167341
 C         1.679843         0.298480        -2.100974
 C         1.422692         1.254823        -0.888188
 C         2.649618         2.365232        -1.038288
 C         1.416884         0.367862         0.452763
 O         0.361457         0.087307         0.870717
 H         4.568551         3.557785        -3.082547
 H         1.032159         3.103067        -3.267962
 H         2.383651         3.015295        -4.367377
 H         2.731349         0.797709        -4.231811
 H         0.902387        -0.219626        -2.507164
 H         2.328354        -0.589344        -1.719642
 H         0.522848         1.819564        -0.956754
 H         2.202063         3.345443        -0.909651
 H         3.576048         2.072196        -0.412534
 H         2.430799        -0.086921         0.763414
