19
Iteration:  4590charge 0 multiplicity 1
 O         4.326279         2.960604        -2.584327
 C         3.051383         2.388544        -2.408908
 C         2.107014         2.383718        -3.723056
 C         2.562926         1.059450        -3.075194
 C         1.803270         0.293224        -2.023273
 C         1.457963         1.261825        -0.873254
 C         2.582772         2.392315        -0.925937
 C         1.341317         0.543013         0.431687
 O         0.301328         0.149555         0.919593
 H         4.235786         3.936429        -2.726786
 H         1.090520         2.649620        -3.785200
 H         2.574822         2.640682        -4.689885
 H         3.217051         0.463045        -3.867052
 H         0.905172        -0.238690        -2.286504
 H         2.369498        -0.529013        -1.574382
 H         0.427411         1.579445        -1.155080
 H         2.053381         3.335334        -0.434619
 H         3.444683         2.224793        -0.214656
 H         2.274948         0.312175         0.875942
