19
Iteration:  4740
 O         4.285740         3.019993        -2.573445
 C         3.094247         2.369201        -2.376176
 C         1.961493         2.381221        -3.478525
 C         2.703467         1.077423        -3.091235
 C         1.899809         0.124095        -2.194288
 C         1.441645         1.128838        -1.068834
 C         2.472754         2.236843        -0.786974
 C         1.301618         0.451842         0.250828
 O         0.362123         0.535675         1.045746
 H         3.915001         3.935710        -2.698611
 H         0.925755         2.564717        -3.416782
 H         2.400973         2.811610        -4.397554
 H         3.555938         0.697175        -3.711640
 H         1.056933        -0.219859        -2.813661
 H         2.550812        -0.645225        -1.699983
 H         0.490153         1.570893        -1.401898
 H         2.026173         3.189539        -0.454037
 H         3.355656         1.989237        -0.267521
 H         2.371026        -0.006567         0.583120
