19
Iteration:   742
 O         4.382485         3.071670        -2.613789
 C         3.170114         2.403005        -2.368628
 C         1.988906         2.616594        -3.265977
 C         2.469683         1.099803        -3.170042
 C         1.739988         0.160003        -2.231902
 C         1.512715         1.082980        -1.035197
 C         2.622764         2.224101        -0.902232
 C         1.316165         0.231396         0.252838
 O         0.350791         0.426663         1.034168
 H         4.201011         3.987688        -2.436939
 H         0.997658         3.060303        -2.979374
 H         2.208918         3.095694        -4.254489
 H         3.146011         0.726512        -3.979065
 H         0.790079        -0.409260        -2.502704
 H         2.445950        -0.643459        -1.917181
 H         0.485883         1.626443        -1.180067
 H         1.951513         3.108593        -0.679612
 H         3.545797         2.131266        -0.320531
 H         2.171619        -0.463421         0.508840
