19
Iteration:  3619charge 0 multiplicity 1
 O         4.374373         2.929403        -2.585934
 C         3.132893         2.403235        -2.371523
 C         1.886774         2.379652        -3.371347
 C         2.639230         1.133353        -2.998075
 C         1.871215         0.186421        -2.140467
 C         1.395357         1.205283        -1.065353
 C         2.484083         2.337649        -0.940613
 C         1.379551         0.517271         0.236029
 O         0.374057         0.373170         0.954041
 H         4.302012         3.767595        -2.123293
 H         0.832706         2.375109        -3.182388
 H         2.002937         2.628120        -4.462097
 H         3.380380         0.638951        -3.749711
 H         1.131663        -0.332004        -2.758640
 H         2.464807        -0.622628        -1.715502
 H         0.490597         1.658688        -1.548371
 H         1.917870         3.131657        -0.458981
 H         3.217511         2.045920        -0.164974
 H         2.335566        -0.074508         0.420921
