19
Iteration:  1257
 O         4.285016         2.956656        -2.418951
 C         3.110754         2.341558        -2.370393
 C         2.050727         2.556289        -3.422956
 C         2.564054         1.133251        -3.221823
 C         1.745316         0.329833        -2.188636
 C         1.349935         1.247214        -1.000448
 C         2.546075         2.271464        -0.954961
 C         1.370063         0.363689         0.217287
 O         0.478968         0.221019         1.086553
 H         4.540085         3.355112        -3.305611
 H         1.039237         2.908579        -3.141566
 H         2.423855         3.091660        -4.322521
 H         3.247249         0.787404        -4.085638
 H         0.769204        -0.102277        -2.635857
 H         2.223625        -0.555772        -1.820135
 H         0.378563         1.876926        -1.148874
 H         2.222732         3.290011        -0.593485
 H         3.331738         1.822957        -0.355654
 H         2.274647        -0.233603         0.374906
