19
Iteration:  4395charge 0 multiplicity 1
 O         4.328821         2.926392        -2.524375
 C         3.032138         2.450773        -2.382754
 C         2.056209         2.463308        -3.693773
 C         2.631889         1.202557        -3.246489
 C         1.929250         0.247488        -2.181242
 C         1.439217         1.096343        -1.000228
 C         2.479193         2.254101        -0.874241
 C         1.326393         0.420595         0.441540
 O         0.302729         0.422792         1.105509
 H         4.142865         3.886710        -2.604000
 H         0.930604         2.427926        -3.452344
 H         2.464453         2.821368        -4.589150
 H         3.528787         0.636344        -3.840311
 H         1.103627        -0.401093        -2.577580
 H         2.659498        -0.589220        -1.852119
 H         0.346445         1.358014        -1.027057
 H         2.139833         3.122436        -0.387068
 H         3.290003         1.799749        -0.286332
 H         2.071809        -0.255136         0.897546
