19
Iteration:  1640charge 0 multiplicity 1
 O         4.401296         2.734316        -2.518823
 C         2.979134         2.363319        -2.396654
 C         1.930322         2.631794        -3.406782
 C         2.451048         1.151782        -3.077179
 C         1.697569         0.327673        -2.134454
 C         1.432820         1.399454        -0.914276
 C         2.534556         2.357214        -0.976667
 C         1.483791         0.550006         0.315430
 O         0.479085         0.001664         0.791214
 H         4.828187         3.159810        -1.795233
 H         1.089575         3.074139        -3.036876
 H         2.270799         3.020400        -4.320565
 H         3.055403         0.859496        -3.985632
 H         0.793677         0.087001        -2.592562
 H         2.379117        -0.467196        -1.752169
 H         0.322534         1.670091        -1.046284
 H         2.505528         3.398410        -0.585067
 H         3.457180         1.907892        -0.359609
 H         2.614416         0.131948         0.526186
