19
Iteration:  2008
 O         4.294123         2.997416        -2.383342
 C         3.058560         2.393921        -2.433340
 C         2.189479         2.550678        -3.656853
 C         2.473288         1.118644        -3.198425
 C         1.656004         0.343177        -2.204431
 C         1.441894         1.161286        -0.965852
 C         2.413270         2.358596        -1.028364
 C         1.397797         0.338804         0.347895
 O         0.471140         0.223534         1.158776
 H         5.151035         2.485024        -2.379770
 H         1.310757         3.171227        -3.629904
 H         2.808526         2.752419        -4.438470
 H         3.200229         0.616575        -3.883613
 H         0.730144        -0.157255        -2.679663
 H         2.300409        -0.496749        -1.761994
 H         0.491754         1.578649        -1.099822
 H         2.040674         3.330184        -0.629917
 H         3.239551         2.259224        -0.336412
 H         2.428167        -0.245098         0.446183
