19
Iteration:  3304
 O         4.264968         2.897752        -2.549362
 C         3.058363         2.388299        -2.301209
 C         1.981186         2.464692        -3.410743
 C         2.630090         1.127832        -3.055861
 C         1.845069         0.144700        -2.133926
 C         1.473069         1.256785        -1.079560
 C         2.517888         2.229040        -0.922521
 C         1.402025         0.591560         0.253804
 O         0.385976         0.329904         0.883986
 H         4.052124         3.877546        -2.685955
 H         0.958145         2.686050        -3.160779
 H         2.232635         2.700515        -4.467254
 H         3.369755         0.595979        -3.611905
 H         0.911304        -0.271257        -2.537908
 H         2.541128        -0.608177        -1.686867
 H         0.439182         1.648015        -1.345885
 H         2.051095         3.127004        -0.289032
 H         3.191905         1.842370        -0.128155
 H         2.463103         0.330860         0.686305
