19
Iteration:  3453charge 0 multiplicity 1
 O         4.316664         2.807163        -2.572404
 C         2.995513         2.402553        -2.463468
 C         2.163974         2.492716        -3.687882
 C         2.609021         1.160290        -3.135056
 C         1.835757         0.339229        -2.138298
 C         1.402744         1.258219        -0.844800
 C         2.477049         2.427867        -0.957844
 C         1.343129         0.577221         0.630532
 O         0.323956         0.009589         0.929365
 H         4.379090         3.793610        -2.710550
 H         1.097359         2.923502        -3.689714
 H         2.848479         2.860336        -4.536583
 H         3.241779         0.579271        -3.723636
 H         0.952756        -0.288161        -2.390993
 H         2.596905        -0.439522        -1.936187
 H         0.357562         1.420255        -1.234449
 H         2.158977         3.383149        -0.699873
 H         3.388434         2.253883        -0.433099
 H         2.312212         0.540976         1.139151
