19
Iteration:  2137
 O         4.327738         2.893232        -2.673717
 C         2.983835         2.439097        -2.425523
 C         1.928168         2.530049        -3.485942
 C         2.622308         1.167598        -3.091308
 C         1.908452         0.306611        -2.104704
 C         1.481356         1.248321        -0.933049
 C         2.590992         2.294991        -0.926684
 C         1.369644         0.424280         0.428535
 O         0.245391         0.208441         0.904178
 H         4.798443         2.780106        -1.841803
 H         0.843047         2.640062        -3.389953
 H         2.300008         2.942118        -4.410790
 H         3.296488         0.875321        -3.888066
 H         1.284485        -0.311640        -2.720057
 H         2.622715        -0.358157        -1.615996
 H         0.538572         1.715724        -1.174044
 H         2.231492         3.243403        -0.513802
 H         3.524942         1.973320        -0.330087
 H         2.278690        -0.050584         0.983858
