19
Iteration:  1175charge 0 multiplicity 1
 O         4.373587         2.927144        -2.528431
 C         3.033706         2.438418        -2.414242
 C         1.985669         2.598915        -3.465085
 C         2.440834         1.104349        -3.216746
 C         1.816607         0.287836        -2.144036
 C         1.515683         1.183869        -0.942361
 C         2.529294         2.341664        -0.897169
 C         1.387389         0.321869         0.307782
 O         0.364668         0.255670         0.940533
 H         4.766200         3.503041        -1.857170
 H         1.006957         2.812460        -3.132913
 H         2.300591         3.110401        -4.410005
 H         2.978022         0.653056        -4.016399
 H         0.937767        -0.150583        -2.523804
 H         2.603470        -0.589163        -1.938228
 H         0.540493         1.642366        -1.038527
 H         2.268375         3.179333        -0.231288
 H         3.480684         1.823774        -0.456095
 H         2.307350        -0.225908         0.599029
