19
Iteration:  1317charge 0 multiplicity 1
 O         4.322213         3.002038        -2.499825
 C         3.099074         2.289674        -2.365867
 C         2.019656         2.684360        -3.435820
 C         2.545060         1.229399        -3.241698
 C         1.756643         0.292351        -2.299720
 C         1.350688         1.140129        -1.034236
 C         2.520592         2.259779        -0.897993
 C         1.395643         0.319259         0.281453
 O         0.430149         0.282014         1.152030
 H         5.011669         2.543233        -3.046130
 H         0.862094         2.712365        -3.304182
 H         2.512356         3.105034        -4.289720
 H         3.371023         0.763468        -3.703610
 H         0.872959        -0.214140        -2.768581
 H         2.354419        -0.601908        -1.757902
 H         0.326459         1.504905        -0.983504
 H         2.152239         3.253035        -0.626928
 H         3.345527         1.817298        -0.233923
 H         2.417313         0.006912         0.543501
