19
Iteration:   188
 O         4.288648         2.802613        -2.217550
 C         2.913416         2.452986        -2.364876
 C         2.165014         2.543565        -3.643399
 C         2.617696         1.193720        -3.166109
 C         1.741217         0.202914        -2.358644
 C         1.396081         0.935628        -1.076307
 C         2.186894         2.384119        -1.049008
 C         1.512978         0.359087         0.339175
 O         0.634298         0.515722         1.168034
 H         4.536827         3.601739        -2.718508
 H         1.040685         2.784258        -3.504082
 H         2.493675         3.096701        -4.525687
 H         3.589193         0.782230        -3.570500
 H         0.880455         0.004751        -2.931167
 H         2.163629        -0.763764        -2.203082
 H         0.370261         1.249695        -1.143742
 H         1.617161         3.186417        -0.601539
 H         3.066251         2.331555        -0.427339
 H         2.595990        -0.224379         0.596114
