19
Iteration:  1374charge 0 multiplicity 1
 O         4.297195         2.911478        -2.554720
 C         2.992055         2.387275        -2.337732
 C         1.980118         2.595420        -3.408448
 C         2.497642         1.210380        -3.262883
 C         1.779888         0.378504        -2.307274
 C         1.533399         1.149989        -0.960069
 C         2.551477         2.204886        -0.860049
 C         1.435885         0.303268         0.280168
 O         0.407825         0.362601         1.025202
 H         4.695987         2.919519        -1.670798
 H         0.899148         2.765497        -3.237225
 H         2.434992         3.041936        -4.341017
 H         3.136883         0.561252        -3.863910
 H         0.916023        -0.056141        -2.804736
 H         2.511428        -0.556424        -2.044814
 H         0.496427         1.557592        -0.873569
 H         2.089864         3.080664        -0.298518
 H         3.552377         2.028255        -0.323901
 H         2.254089        -0.469646         0.532472
