19
Iteration:  2295
 O         4.268808         2.833435        -2.561794
 C         2.982423         2.389297        -2.382411
 C         2.086178         2.509029        -3.582235
 C         2.607306         1.195899        -3.098154
 C         1.881443         0.235215        -2.090207
 C         1.361997         1.204336        -0.978718
 C         2.502584         2.318503        -0.995325
 C         1.415713         0.525741         0.361050
 O         0.389715         0.286638         0.994710
 H         4.429307         3.380129        -1.785127
 H         0.984240         2.514153        -3.551649
 H         2.455604         2.875233        -4.547940
 H         3.428237         0.756974        -3.669350
 H         0.962209        -0.236792        -2.655090
 H         2.596776        -0.534566        -1.802884
 H         0.351047         1.341599        -1.349555
 H         2.057302         3.256535        -0.502399
 H         3.225234         1.920850        -0.211045
 H         2.434811         0.275855         0.669450
