19
Iteration:  4894
 O         4.325435         2.936385        -2.438850
 C         2.936337         2.405810        -2.368705
 C         2.169823         2.371169        -3.722080
 C         2.718751         1.142020        -3.137044
 C         1.851369         0.191363        -2.236712
 C         1.261253         1.132484        -1.044869
 C         2.386698         2.346373        -0.904964
 C         1.357877         0.442730         0.290995
 O         0.495018         0.426710         1.170716
 H         3.991878         3.868218        -2.525809
 H         1.116290         2.484174        -3.764734
 H         2.718451         2.813261        -4.483063
 H         3.380112         0.462139        -3.517020
 H         0.853026        -0.332031        -2.710815
 H         2.430131        -0.624619        -1.707466
 H         0.164538         1.498851        -1.072878
 H         1.903510         3.345861        -0.546507
 H         3.265323         2.251327        -0.242505
 H         2.384516         0.049031         0.678441
