19
Iteration:  1196charge 0 multiplicity 1
 O         4.260445         2.810265        -2.509129
 C         2.993756         2.394995        -2.360253
 C         1.944599         2.565821        -3.527945
 C         2.559576         1.277078        -3.132894
 C         1.747802         0.285103        -2.219193
 C         1.555588         1.184158        -0.942848
 C         2.611259         2.321818        -0.938653
 C         1.434215         0.352842         0.350354
 O         0.366060         0.250280         0.961397
 H         4.641001         3.436472        -1.834037
 H         0.940948         2.797846        -3.424118
 H         2.464583         3.038750        -4.374527
 H         3.348402         0.929831        -3.789711
 H         0.865238        -0.022159        -2.733352
 H         2.538455        -0.542798        -2.114162
 H         0.645424         1.657772        -1.123013
 H         2.050449         3.128051        -0.524610
 H         3.518563         2.301647        -0.247792
 H         2.310889        -0.275766         0.517272
