19
Iteration:  4171charge 0 multiplicity 1
 O         4.359281         2.895474        -2.568122
 C         2.987761         2.425812        -2.404719
 C         2.164226         2.396642        -3.652744
 C         2.618584         1.146503        -3.023686
 C         1.795185         0.312587        -2.130830
 C         1.371877         1.176312        -0.978416
 C         2.401933         2.402158        -1.017879
 C         1.371519         0.416040         0.337024
 O         0.418282         0.254803         1.071458
 H         4.498442         3.796971        -2.284764
 H         1.113867         2.773411        -3.536403
 H         2.545993         2.783304        -4.578846
 H         3.558827         0.665993        -3.473307
 H         0.932190        -0.290306        -2.518783
 H         2.317512        -0.550637        -1.576004
 H         0.284185         1.542771        -1.113213
 H         1.836994         3.318987        -0.690075
 H         3.122616         2.152828        -0.287522
 H         2.332667         0.092216         0.789684
