19
Iteration:  1161charge 0 multiplicity 1
 O         4.378349         2.963535        -2.629352
 C         3.110745         2.359586        -2.385385
 C         1.968010         2.598810        -3.415365
 C         2.528421         1.281905        -3.091853
 C         1.804436         0.283997        -2.145048
 C         1.369502         1.188745        -0.953748
 C         2.597168         2.182150        -0.986819
 C         1.403211         0.374185         0.306703
 O         0.340867         0.227593         0.961135
 H         4.336886         3.544619        -1.820618
 H         1.035207         3.026444        -3.076128
 H         2.258579         2.894254        -4.369855
 H         3.040508         0.740547        -3.960796
 H         1.020214        -0.423214        -2.488619
 H         2.583233        -0.387649        -1.712630
 H         0.399655         1.597895        -1.091308
 H         2.300089         3.171542        -0.665609
 H         3.376189         1.782652        -0.318673
 H         2.279905        -0.230412         0.578080
