19
Iteration:  1383
 O         4.292505         2.950396        -2.560163
 C         3.012317         2.376424        -2.350570
 C         2.003313         2.661224        -3.430801
 C         2.540482         1.209917        -3.245709
 C         1.700905         0.315694        -2.227054
 C         1.573252         1.079650        -0.952322
 C         2.589057         2.196381        -0.944239
 C         1.365158         0.281552         0.344170
 O         0.428391         0.355564         1.015837
 H         4.711146         3.124995        -1.708791
 H         0.850619         2.866564        -3.467139
 H         2.388908         3.198677        -4.356209
 H         3.295230         0.896002        -3.968501
 H         0.675030         0.077318        -2.572551
 H         2.342503        -0.654742        -2.133311
 H         0.628107         1.592628        -1.156795
 H         2.074334         3.082742        -0.487564
 H         3.381746         1.833268        -0.182664
 H         2.220540        -0.353567         0.749619
