19
Iteration:  4313charge 0 multiplicity 1
 O         4.305867         2.946381        -2.597773
 C         2.945859         2.411700        -2.408282
 C         2.009491         2.492063        -3.561826
 C         2.716367         1.122177        -3.119344
 C         2.012237         0.161044        -2.134990
 C         1.493141         1.127056        -0.949530
 C         2.460737         2.244393        -0.940086
 C         1.247025         0.373007         0.271261
 O         0.329485         0.519614         1.106766
 H         4.186702         3.851460        -2.326696
 H         0.789374         2.599117        -3.485486
 H         2.502946         3.147836        -4.326258
 H         3.626621         0.795762        -3.757803
 H         1.076240        -0.297982        -2.588452
 H         2.652287        -0.706907        -1.859809
 H         0.410428         1.567241        -1.005211
 H         2.105710         3.177044        -0.364191
 H         3.343310         1.759944        -0.468235
 H         2.036360        -0.513004         0.484086
