19
Iteration:  1173charge 0 multiplicity 1
 O         4.374174         2.939077        -2.537015
 C         3.059779         2.417938        -2.411392
 C         1.983835         2.598370        -3.468137
 C         2.444178         1.126219        -3.196754
 C         1.811843         0.282965        -2.133582
 C         1.493656         1.191562        -0.947869
 C         2.528033         2.332208        -0.907244
 C         1.382543         0.319808         0.328949
 O         0.368968         0.255661         0.932213
 H         4.754704         3.500685        -1.890484
 H         1.020532         2.840209        -3.107103
 H         2.270454         3.078383        -4.371256
 H         2.966059         0.623337        -4.066500
 H         0.951688        -0.182016        -2.581346
 H         2.622633        -0.506828        -1.938451
 H         0.532774         1.588156        -1.059582
 H         2.303290         3.116851        -0.221019
 H         3.442140         1.831977        -0.482123
 H         2.311407        -0.227719         0.553858
