19
Iteration:  3886
 O         4.266729         2.911811        -2.498513
 C         2.970792         2.452618        -2.393077
 C         2.151375         2.436488        -3.684231
 C         2.597454         1.136911        -3.099383
 C         1.872884         0.196827        -2.215116
 C         1.441802         1.159142        -0.884446
 C         2.497361         2.361310        -0.981060
 C         1.373381         0.424952         0.433894
 O         0.310098         0.311006         1.053471
 H         4.296552         3.905832        -2.654928
 H         1.070319         2.666555        -3.926777
 H         2.804471         2.732559        -4.515475
 H         3.321410         0.780704        -3.858044
 H         0.969352        -0.259004        -2.570536
 H         2.565270        -0.537711        -1.785548
 H         0.447421         1.625459        -1.203231
 H         2.162202         3.418155        -0.603567
 H         3.458207         1.907622        -0.455745
 H         2.323144         0.178577         0.915264
