19
Iteration:   295
 O         4.193269         3.223031        -2.589907
 C         3.051062         2.431658        -2.335599
 C         2.083143         2.432845        -3.541997
 C         2.677847         1.158397        -3.116864
 C         1.734592         0.204681        -2.280172
 C         1.435021         1.052536        -0.979644
 C         2.594502         2.182849        -0.809052
 C         1.314458         0.315242         0.295566
 O         0.396212         0.432830         1.095085
 H         4.982774         2.628672        -2.740035
 H         1.066765         2.623568        -3.466538
 H         2.675497         2.886868        -4.262495
 H         3.324677         0.550595        -3.785505
 H         0.764036         0.105371        -2.801477
 H         2.211184        -0.822608        -2.190676
 H         0.499698         1.637926        -1.172021
 H         2.222366         3.132994        -0.490017
 H         3.463933         1.782881        -0.213071
 H         2.178425        -0.333647         0.590198
