19
Iteration:  4895charge 0 multiplicity 1
 O         4.331002         2.941297        -2.441346
 C         2.933772         2.407287        -2.387722
 C         2.174102         2.373118        -3.720641
 C         2.719923         1.140183        -3.143283
 C         1.851341         0.196570        -2.237960
 C         1.254436         1.134773        -1.037599
 C         2.384949         2.343741        -0.897147
 C         1.352376         0.440138         0.298241
 O         0.492943         0.422204         1.174482
 H         3.994789         3.844255        -2.518060
 H         1.120339         2.471253        -3.794614
 H         2.735839         2.817943        -4.491785
 H         3.392163         0.439437        -3.515725
 H         0.835069        -0.299765        -2.681289
 H         2.463958        -0.621039        -1.674525
 H         0.181975         1.497439        -1.103828
 H         1.896180         3.320185        -0.514298
 H         3.259582         2.267551        -0.262495
 H         2.406017         0.026507         0.676636
