19
Iteration:  2300
 O         4.242088         2.823055        -2.530424
 C         2.934483         2.330557        -2.400046
 C         2.098686         2.541061        -3.644767
 C         2.612885         1.177283        -3.117886
 C         1.856995         0.262873        -2.112040
 C         1.444901         1.179226        -0.963162
 C         2.460465         2.357830        -0.935166
 C         1.361011         0.537103         0.357051
 O         0.421690         0.280008         1.012398
 H         4.538148         3.392899        -1.787860
 H         1.018477         2.561656        -3.663445
 H         2.587911         2.845421        -4.579491
 H         3.477861         0.814345        -3.662378
 H         1.028475        -0.256239        -2.500954
 H         2.678137        -0.534051        -1.818811
 H         0.459651         1.511408        -1.409929
 H         2.188625         3.272926        -0.490870
 H         3.293092         1.996246        -0.353527
 H         2.383862         0.121067         0.678982
