19
Iteration:  1350
 O         4.339390         2.949557        -2.557156
 C         3.048901         2.391887        -2.355241
 C         1.943093         2.693540        -3.353223
 C         2.570528         1.220654        -3.134446
 C         1.772255         0.221706        -2.155373
 C         1.388612         1.214238        -1.088087
 C         2.535086         2.219816        -0.971870
 C         1.321810         0.348622         0.169295
 O         0.508591         0.297397         1.081621
 H         4.923154         2.389518        -2.055343
 H         0.829799         2.871197        -3.081298
 H         2.205692         3.015308        -4.359953
 H         3.312893         0.798449        -3.763665
 H         0.952848        -0.246693        -2.725750
 H         2.480351        -0.635336        -1.764343
 H         0.368080         1.511186        -1.218539
 H         2.242156         3.125826        -0.404699
 H         3.402185         1.790390        -0.345507
 H         2.266978        -0.278873         0.325338
