19
Iteration:  2368
 O         4.319770         2.920597        -2.461052
 C         3.060719         2.312468        -2.226236
 C         2.104304         2.384671        -3.405580
 C         2.685417         1.102848        -3.087476
 C         1.736562         0.272711        -2.302851
 C         1.303930         1.191233        -1.105049
 C         2.376734         2.452455        -0.978115
 C         1.405953         0.489116         0.199963
 O         0.530816         0.345624         1.094392
 H         4.128277         3.323116        -3.340700
 H         0.959892         2.369792        -3.451876
 H         2.533421         2.798051        -4.329623
 H         3.322739         0.447534        -3.720409
 H         0.834038        -0.121801        -2.718815
 H         2.362142        -0.601593        -1.813816
 H         0.220999         1.436149        -1.070048
 H         1.997333         3.420614        -0.634972
 H         3.110636         2.170340        -0.215237
 H         2.361125         0.043633         0.368944
