19
Iteration:   307charge 0 multiplicity 1
 O         4.215323         3.241065        -2.584279
 C         3.088247         2.342033        -2.369169
 C         2.041300         2.466911        -3.457542
 C         2.643444         1.078342        -3.116943
 C         1.780682         0.275982        -2.235395
 C         1.461889         1.155184        -1.022159
 C         2.593313         2.118479        -0.959556
 C         1.267587         0.333012         0.290606
 O         0.373560         0.387852         1.104739
 H         5.048025         2.851464        -2.240485
 H         0.983212         2.705134        -3.227683
 H         2.271912         2.868767        -4.445948
 H         3.454266         0.741268        -3.782859
 H         0.918190        -0.119530        -2.754587
 H         2.341218        -0.623942        -1.811022
 H         0.526484         1.718436        -1.143465
 H         2.269323         2.907517        -0.308259
 H         3.488621         1.750969        -0.380605
 H         2.266353        -0.081288         0.540900
