19
Iteration:  4930
 O         4.310537         2.982627        -2.502200
 C         3.033320         2.387527        -2.480840
 C         2.150155         2.397784        -3.637119
 C         2.710743         1.029365        -2.998713
 C         1.807799         0.235698        -2.169918
 C         1.284286         1.179316        -0.977264
 C         2.436037         2.454173        -1.033114
 C         1.332546         0.351306         0.348971
 O         0.418282         0.356795         1.170028
 H         4.145688         3.949065        -2.445612
 H         1.063456         2.548479        -3.654235
 H         2.713557         2.730075        -4.554597
 H         3.550605         0.661871        -3.663463
 H         0.895062        -0.164980        -2.697413
 H         2.539197        -0.614137        -1.748230
 H         0.363895         1.588959        -1.318933
 H         1.873042         3.344983        -0.758525
 H         3.333278         2.327376        -0.449465
 H         2.317291        -0.218088         0.324727
