19
Iteration:    63
 O         4.396645         2.985859        -2.294814
 C         3.045546         2.366611        -2.444070
 C         2.059980         2.583638        -3.608937
 C         2.614380         1.152911        -3.269264
 C         1.813331         0.139456        -2.252963
 C         1.328476         1.074765        -0.956704
 C         2.212978         2.327494        -1.107756
 C         1.478530         0.389080         0.445355
 O         0.495243         0.383932         1.145314
 H         4.895420         2.714855        -3.064468
 H         1.071586         3.075502        -3.510289
 H         2.478747         2.984732        -4.519169
 H         3.407783         0.803954        -3.875154
 H         0.977042        -0.474301        -2.652166
 H         2.619586        -0.440021        -1.771580
 H         0.161709         1.315720        -0.995644
 H         1.481167         3.167503        -1.083470
 H         2.979885         2.381629        -0.321482
 H         2.536766         0.156447         0.863503
