19
Iteration:   364charge 0 multiplicity 1
 O         4.336358         2.820677        -2.655966
 C         2.986607         2.456951        -2.373696
 C         1.860000         2.596334        -3.426972
 C         2.569717         1.239839        -3.116639
 C         2.013267         0.168929        -2.140525
 C         1.556238         1.121386        -0.840356
 C         2.541811         2.323899        -0.934277
 C         1.378101         0.398569         0.401388
 O         0.254264         0.289221         0.825074
 H         4.470578         3.778987        -2.746187
 H         0.832912         2.800747        -2.889509
 H         2.382799         3.095582        -4.330606
 H         3.204983         0.989592        -3.940249
 H         1.159346        -0.289053        -2.584007
 H         2.772748        -0.597208        -1.840325
 H         0.555052         1.427289        -1.042790
 H         2.072666         3.177456        -0.415697
 H         3.485658         1.992255        -0.437030
 H         2.254389         0.195124         1.017369
