19
Iteration:  1182charge 0 multiplicity 1
 O         4.363144         2.870705        -2.513136
 C         2.941042         2.512897        -2.383808
 C         1.991567         2.589612        -3.470693
 C         2.454337         1.116701        -3.259891
 C         1.840093         0.277867        -2.189335
 C         1.571639         1.172912        -0.919657
 C         2.588740         2.330844        -0.877340
 C         1.401154         0.338261         0.249221
 O         0.354905         0.252493         0.969490
 H         4.502821         3.404892        -1.743506
 H         0.922172         2.820143        -3.264832
 H         2.332566         3.029791        -4.354124
 H         3.246672         0.662717        -3.981836
 H         0.760778        -0.145168        -2.317572
 H         2.290023        -0.629195        -1.908781
 H         0.619216         1.692345        -1.019738
 H         2.159039         3.278471        -0.531316
 H         3.459570         2.060695        -0.337367
 H         2.271761        -0.210483         0.700327
