19
Iteration:  4659
 O         4.275299         2.887037        -2.681268
 C         3.076658         2.330803        -2.379000
 C         1.995526         2.456458        -3.389442
 C         2.729325         1.120644        -3.023624
 C         1.942117         0.182195        -2.049170
 C         1.402694         1.203552        -0.989430
 C         2.460834         2.316484        -0.921815
 C         1.394346         0.549447         0.313625
 O         0.302491         0.367766         0.863251
 H         4.163420         3.856790        -2.651827
 H         0.898696         2.501879        -3.014961
 H         2.013861         2.919842        -4.371669
 H         3.307355         0.699312        -3.763471
 H         1.204867        -0.378917        -2.621107
 H         2.497304        -0.594270        -1.613204
 H         0.366523         1.554495        -1.158726
 H         2.188875         3.317514        -0.641459
 H         3.310866         2.093584        -0.201946
 H         2.301974         0.044038         0.717660
