19
Iteration:  1378
 O         4.297803         2.925177        -2.558271
 C         2.996519         2.380456        -2.335903
 C         1.984707         2.627531        -3.407437
 C         2.510749         1.206428        -3.275466
 C         1.752872         0.354784        -2.267885
 C         1.572933         1.138574        -0.959215
 C         2.557753         2.192674        -0.890209
 C         1.405740         0.296840         0.305645
 O         0.420260         0.358355         1.020073
 H         4.689613         2.999644        -1.671278
 H         0.942662         2.789711        -3.403339
 H         2.363039         3.033339        -4.301581
 H         3.228610         0.616443        -3.888857
 H         0.826176         0.016695        -2.775304
 H         2.397099        -0.459181        -2.101717
 H         0.529253         1.525047        -0.959773
 H         2.079795         2.989495        -0.344928
 H         3.424913         2.010304        -0.298283
 H         2.170220        -0.412550         0.649196
