19
Iteration:  1748charge 0 multiplicity 1
 O         4.301330         3.028523        -2.458562
 C         3.124742         2.285476        -2.414340
 C         1.954449         2.539736        -3.333372
 C         2.477474         1.143445        -3.118986
 C         1.670598         0.310734        -2.117257
 C         1.498300         1.341645        -0.946625
 C         2.689354         2.213423        -1.009363
 C         1.369609         0.412012         0.255558
 O         0.402492         0.177916         0.876823
 H         5.017140         2.941903        -3.115898
 H         1.023205         2.786710        -3.035727
 H         2.273791         3.189534        -4.160434
 H         3.160571         0.737962        -3.971598
 H         0.744220         0.045578        -2.602728
 H         2.082927        -0.613619        -1.699811
 H         0.485578         1.921115        -1.046656
 H         2.311665         3.181443        -0.600090
 H         3.429246         1.927903        -0.315489
 H         2.310349        -0.371925         0.402926
