19
Iteration:  2680
 O         4.319772         2.888354        -2.635278
 C         3.125843         2.285330        -2.409915
 C         2.026599         2.409618        -3.375912
 C         2.602316         1.016212        -3.089306
 C         1.759269         0.357046        -1.971557
 C         1.393072         1.444564        -1.013240
 C         2.543218         2.430053        -0.923132
 C         1.376731         0.534018         0.302165
 O         0.365386         0.103105         0.837753
 H         4.221495         3.796092        -2.247305
 H         1.100242         2.732525        -3.043589
 H         2.353870         2.574310        -4.385112
 H         3.223276         0.604328        -3.860183
 H         0.937283        -0.384381        -2.371260
 H         2.469115        -0.449555        -1.611801
 H         0.443960         1.947920        -1.267965
 H         2.203094         3.412836        -0.600620
 H         3.323907         2.134669        -0.299857
 H         2.351976         0.045218         0.542663
