19
Iteration:  1430charge 0 multiplicity 1
 O         4.297934         2.983669        -2.619760
 C         3.057247         2.324014        -2.345347
 C         1.929329         2.613495        -3.423413
 C         2.614053         1.239826        -3.209610
 C         1.768226         0.284872        -2.175292
 C         1.383719         1.229714        -1.010061
 C         2.694148         2.088341        -0.897234
 C         1.298706         0.423146         0.191016
 O         0.428420         0.254008         1.090965
 H         4.575220         3.357487        -1.777943
 H         0.919742         2.706901        -3.104373
 H         2.179988         3.471699        -4.056416
 H         3.146025         0.580627        -3.925641
 H         0.946716        -0.047236        -2.799701
 H         2.509649        -0.582490        -1.739523
 H         0.397615         1.811293        -1.167762
 H         2.386819         3.017135        -0.306445
 H         3.660493         1.632780        -0.380407
 H         2.224659        -0.184326         0.483424
