19
Iteration:  4081charge 0 multiplicity 1
 O         4.333351         2.842387        -2.629879
 C         3.005238         2.431746        -2.401959
 C         2.109381         2.408981        -3.620538
 C         2.619161         1.166390        -3.104737
 C         1.901535         0.313525        -2.136896
 C         1.454799         1.288659        -0.845910
 C         2.462697         2.432884        -0.918020
 C         1.339822         0.456094         0.460898
 O         0.239279         0.115462         0.977517
 H         4.377051         3.746044        -3.067014
 H         1.060818         2.710281        -3.797021
 H         2.575532         2.700627        -4.638862
 H         3.341443         0.643790        -3.616483
 H         1.280657        -0.409124        -2.726848
 H         2.758107        -0.364015        -1.713844
 H         0.452229         1.654649        -0.914689
 H         2.150697         3.426904        -0.640589
 H         3.315981         2.269299        -0.357807
 H         2.320395         0.313546         1.051862
