19
Iteration:  2199
 O         4.245564         3.085949        -2.540636
 C         3.017115         2.429675        -2.404427
 C         1.981025         2.439710        -3.497617
 C         2.650075         1.114834        -3.134956
 C         1.873896         0.254125        -2.091770
 C         1.571419         1.237552        -0.940174
 C         2.718091         2.256328        -0.990987
 C         1.298884         0.450905         0.451960
 O         0.171898         0.239001         0.904600
 H         4.782080         2.787477        -3.282081
 H         0.877962         2.413549        -3.248138
 H         2.142462         2.702594        -4.522535
 H         3.236435         0.488118        -3.816796
 H         0.901767        -0.050695        -2.435611
 H         2.454887        -0.570055        -1.596378
 H         0.665753         1.900319        -1.118707
 H         2.577027         3.153691        -0.428633
 H         3.571360         1.770151        -0.582065
 H         2.290047         0.025068         0.836761
