19
Iteration:  1505charge 0 multiplicity 1
 O         4.376184         2.927529        -2.552745
 C         3.061703         2.350063        -2.395498
 C         1.992790         2.738528        -3.374997
 C         2.512700         1.225291        -3.205576
 C         1.787196         0.333171        -2.265991
 C         1.442556         1.126945        -0.991586
 C         2.624119         2.186139        -0.906444
 C         1.342519         0.386986         0.363474
 O         0.348703         0.163791         1.081715
 H         4.466746         3.259678        -3.477234
 H         1.024294         3.139510        -3.007617
 H         2.403627         3.420683        -4.204196
 H         2.968368         0.609775        -4.014396
 H         0.897996        -0.233321        -2.551491
 H         2.531271        -0.468175        -2.091054
 H         0.412018         1.566582        -1.178567
 H         2.205880         3.204833        -0.796491
 H         3.545480         1.871707        -0.349715
 H         2.298199         0.003310         0.867019
