19
Iteration:   722charge 0 multiplicity 1
 O         4.354544         2.922902        -2.488995
 C         3.040919         2.370493        -2.398283
 C         1.911136         2.603477        -3.351108
 C         2.486736         1.256208        -3.139815
 C         1.917085         0.221423        -2.176615
 C         1.557903         1.099456        -0.960295
 C         2.576833         2.206639        -0.917889
 C         1.364397         0.253856         0.243175
 O         0.366206         0.464900         0.966273
 H         4.195585         3.761365        -2.930919
 H         0.785624         2.936731        -3.000602
 H         2.138331         3.052933        -4.392180
 H         2.776160         0.743789        -4.082826
 H         0.978851        -0.232634        -2.527708
 H         2.666359        -0.553731        -2.154648
 H         0.514572         1.588183        -1.152138
 H         2.248640         3.213608        -0.546167
 H         3.485748         1.833793        -0.465142
 H         1.940210        -0.676960         0.366009
