19
Iteration:  3207
 O         4.239820         3.006643        -2.423563
 C         3.026154         2.369045        -2.309718
 C         1.991653         2.388970        -3.426226
 C         2.713751         1.111743        -3.118762
 C         1.869209         0.134166        -2.255204
 C         1.364601         1.134719        -1.173879
 C         2.478330         2.224921        -0.861468
 C         1.262835         0.378405         0.129753
 O         0.548650         0.617176         1.111708
 H         4.207077         3.982253        -2.663085
 H         0.946297         2.422553        -3.249453
 H         2.249342         2.714541        -4.470706
 H         3.610788         0.805785        -3.703246
 H         0.990915        -0.288030        -2.787403
 H         2.462415        -0.641953        -1.782762
 H         0.378278         1.587350        -1.320347
 H         2.316456         3.179662        -0.483569
 H         3.275535         1.864365        -0.296185
 H         1.987276        -0.493459         0.272944
