19
Iteration:  2410
 O         4.326462         3.039601        -2.269810
 C         3.015754         2.369465        -2.429483
 C         2.106127         2.405704        -3.702224
 C         2.573804         1.082443        -3.098927
 C         1.717226         0.232807        -2.274734
 C         1.400098         1.216181        -1.037392
 C         2.392631         2.326778        -1.030850
 C         1.398569         0.356310         0.350015
 O         0.479839         0.397239         1.191238
 H         4.725920         3.077058        -3.149500
 H         1.124508         2.920848        -3.518266
 H         2.502853         2.729902        -4.639029
 H         3.303494         0.579926        -3.778418
 H         0.962934        -0.196207        -2.869704
 H         2.451269        -0.621913        -1.876191
 H         0.424890         1.720933        -1.241848
 H         2.216851         3.262874        -0.586788
 H         3.223889         1.911890        -0.517897
 H         2.424070        -0.236103         0.470464
