19
Iteration:   628charge 0 multiplicity 1
 O         4.277695         2.965881        -2.398468
 C         3.004480         2.422271        -2.409189
 C         1.983082         2.460560        -3.507038
 C         2.605649         1.159946        -3.073944
 C         1.702341         0.368256        -2.207121
 C         1.464860         1.207946        -0.894431
 C         2.673933         2.304586        -0.940409
 C         1.392883         0.291152         0.194035
 O         0.439206         0.295042         0.981903
 H         4.437816         3.255559        -3.289856
 H         0.986840         2.616055        -3.291977
 H         2.214834         2.934004        -4.433047
 H         3.082122         0.559521        -3.881479
 H         0.708539         0.108481        -2.639986
 H         2.150439        -0.640232        -1.869739
 H         0.514104         1.680073        -0.996420
 H         2.107308         3.141125        -0.588578
 H         3.631277         1.923081        -0.341027
 H         2.288947        -0.317536         0.396395
