19
Iteration:   479charge 0 multiplicity 1
 O         4.411676         2.953746        -2.644822
 C         3.156431         2.400892        -2.432611
 C         2.094802         2.566779        -3.484837
 C         2.517843         1.096764        -3.061032
 C         1.629006         0.332551        -2.140495
 C         1.432948         1.284794        -0.943485
 C         2.516657         2.470837        -0.965038
 C         1.344113         0.477050         0.533451
 O         0.391353        -0.112505         0.929467
 H         4.534531         3.354097        -3.517229
 H         1.122154         2.984599        -3.432341
 H         2.565470         2.711905        -4.454744
 H         3.208174         0.569174        -3.769351
 H         0.672330         0.002298        -2.627960
 H         2.062052        -0.529194        -1.675289
 H         0.401230         1.734146        -0.925165
 H         2.152325         3.501363        -0.694935
 H         3.307068         2.122987        -0.301799
 H         2.343529         0.525944         1.106158
