19
Iteration:  1946charge 0 multiplicity 1
 O         4.369902         2.834825        -2.420745
 C         3.049285         2.323913        -2.356547
 C         2.008574         2.550036        -3.398652
 C         2.594427         1.144594        -3.125925
 C         1.689871         0.224384        -2.203088
 C         1.325388         1.196486        -1.063567
 C         2.435745         2.326830        -0.978026
 C         1.420237         0.426369         0.148371
 O         0.573435         0.353362         1.030669
 H         4.219735         3.819399        -2.262501
 H         1.029126         2.992736        -3.177949
 H         2.598288         3.107859        -4.124447
 H         3.356264         0.825933        -3.790330
 H         0.848133        -0.157994        -2.715788
 H         2.304219        -0.584965        -1.863424
 H         0.234228         1.566089        -1.064309
 H         1.946626         3.313334        -0.775363
 H         3.220209         2.081812        -0.207508
 H         2.390024        -0.286117         0.285789
