19
Iteration:  2564charge 0 multiplicity 1
 O         4.295301         2.917663        -2.599775
 C         3.000097         2.411598        -2.350875
 C         2.021048         2.349493        -3.466720
 C         2.675660         1.127379        -3.112400
 C         1.885926         0.233818        -2.271087
 C         1.429463         1.228847        -0.891417
 C         2.579799         2.316714        -0.923691
 C         1.308864         0.410385         0.280428
 O         0.342769         0.431707         1.045412
 H         4.255835         3.859714        -2.288995
 H         0.985401         2.258815        -3.138976
 H         2.322590         2.867375        -4.420545
 H         3.420376         0.801033        -3.794678
 H         1.020456        -0.070423        -2.711737
 H         2.432471        -0.643942        -2.028476
 H         0.520093         1.672259        -1.279019
 H         2.066210         3.134301        -0.420698
 H         3.379239         1.973566        -0.240564
 H         2.093486        -0.370183         0.355871
