19
Iteration:  4541
 O         4.425627         2.836427        -2.648536
 C         3.148350         2.346172        -2.355160
 C         1.981115         2.337030        -3.473935
 C         2.640753         1.080973        -3.033397
 C         1.854155         0.299811        -2.079837
 C         1.313023         1.370874        -0.954930
 C         2.378324         2.451156        -0.958744
 C         1.358662         0.567733         0.307681
 O         0.411037         0.136270         0.921987
 H         4.434245         3.802014        -2.645670
 H         0.955293         2.616901        -3.188594
 H         2.310703         2.774765        -4.476214
 H         3.352926         0.683170        -3.593487
 H         0.969674        -0.237574        -2.521943
 H         2.493323        -0.550047        -1.649455
 H         0.375600         1.774737        -1.278523
 H         1.789110         3.342241        -0.681891
 H         3.022949         2.350463        -0.074486
 H         2.338702         0.430254         0.642059
