19
Iteration:  1698charge 0 multiplicity 1
 O         4.334478         2.908420        -2.682450
 C         2.996322         2.447631        -2.359822
 C         2.151367         2.696466        -3.545141
 C         2.551564         1.193172        -3.057244
 C         1.648734         0.426903        -2.161926
 C         1.431623         1.214378        -0.879337
 C         2.610325         2.308194        -0.905916
 C         1.360309         0.424227         0.377041
 O         0.362079        -0.026650         0.981136
 H         4.882598         2.113687        -2.963712
 H         1.024804         2.908602        -3.298142
 H         2.529953         3.171400        -4.479129
 H         3.228890         0.703402        -3.732009
 H         0.821172        -0.116943        -2.685892
 H         2.164520        -0.538624        -1.884188
 H         0.451689         1.639049        -1.002006
 H         2.270136         3.270229        -0.547222
 H         3.590439         1.953875        -0.386679
 H         2.398290         0.260472         0.919834
