19
Iteration:   241
 O         4.353378         2.996774        -2.252082
 C         3.012402         2.402795        -2.406319
 C         2.027997         2.512203        -3.479964
 C         2.608883         1.129950        -3.200476
 C         1.828335         0.162677        -2.292318
 C         1.312588         1.179566        -1.137973
 C         2.254081         2.305233        -1.010664
 C         1.349975         0.365154         0.200432
 O         0.640813         0.445049         1.212026
 H         4.954960         2.740218        -2.979847
 H         1.005268         2.708208        -3.244760
 H         2.387217         2.704263        -4.449387
 H         3.250308         0.651471        -3.983156
 H         1.113732        -0.552536        -2.710547
 H         2.590712        -0.458506        -1.746100
 H         0.300757         1.605021        -1.333326
 H         1.974210         3.222516        -0.540605
 H         3.084485         2.032301        -0.290025
 H         2.218320        -0.391825         0.194766
