19
Iteration:  1689charge 0 multiplicity 1
 O         4.314261         2.871747        -2.670501
 C         3.081527         2.427999        -2.409219
 C         2.141472         2.687309        -3.440786
 C         2.518471         1.201829        -3.155959
 C         1.700576         0.340265        -2.164488
 C         1.387231         1.275225        -0.885833
 C         2.563938         2.387443        -0.924771
 C         1.357218         0.400913         0.426107
 O         0.382592        -0.027485         0.950263
 H         5.064423         2.206486        -2.646253
 H         0.971667         2.881745        -3.312804
 H         2.613616         3.029736        -4.365899
 H         3.058481         0.719923        -3.918026
 H         0.675552         0.149879        -2.681859
 H         2.307414        -0.520216        -1.847036
 H         0.406004         1.694646        -0.812185
 H         2.276936         3.302778        -0.391747
 H         3.481122         2.041302        -0.395800
 H         2.500345         0.334968         0.882187
