19
Iteration:  4782charge 0 multiplicity 1
 O         4.294003         3.004311        -2.461878
 C         2.957227         2.371884        -2.359657
 C         2.052757         2.422778        -3.590390
 C         2.737134         1.071362        -3.122149
 C         1.915075         0.154227        -2.182583
 C         1.399074         1.074880        -1.069132
 C         2.466831         2.290775        -0.976851
 C         1.289483         0.373524         0.293755
 O         0.426002         0.563085         1.146315
 H         4.070774         3.944474        -2.440972
 H         0.989198         2.723752        -3.481366
 H         2.374941         2.860655        -4.589617
 H         3.481268         0.623365        -3.903723
 H         0.966026        -0.212796        -2.673866
 H         2.553776        -0.658676        -1.849811
 H         0.391911         1.511296        -1.227243
 H         1.984671         3.192636        -0.603082
 H         3.274060         2.110699        -0.234232
 H         2.101276        -0.274789         0.477722
