19
Iteration:  3289charge 0 multiplicity 1
 O         4.310328         2.898245        -2.521682
 C         2.966879         2.348789        -2.357271
 C         1.966466         2.424587        -3.394214
 C         2.631061         1.101263        -3.105319
 C         1.923374         0.256537        -2.132999
 C         1.369031         1.150307        -1.040095
 C         2.520652         2.286393        -0.908101
 C         1.432143         0.491250         0.274127
 O         0.358666         0.407033         0.904849
 H         4.308904         3.872730        -2.524603
 H         0.878674         2.655062        -3.229055
 H         2.465407         3.062306        -4.173312
 H         3.199806         0.781146        -3.990549
 H         1.186260        -0.428812        -2.552738
 H         2.583591        -0.542964        -1.778303
 H         0.374691         1.576366        -1.195292
 H         2.198309         3.333097        -0.664339
 H         3.497884         1.988767        -0.431264
 H         2.399146         0.112424         0.706596
