19
Iteration:  3065
 O         4.332181         3.013079        -2.466620
 C         2.959871         2.474959        -2.354749
 C         2.141192         2.427983        -3.629069
 C         2.700482         1.125933        -3.131869
 C         1.868319         0.198409        -2.281702
 C         1.344189         1.041415        -0.981119
 C         2.329522         2.216725        -0.962187
 C         1.226597         0.275467         0.282852
 O         0.546243         0.578775         1.213175
 H         4.256837         4.017670        -2.407619
 H         1.006664         2.456516        -3.766735
 H         2.594232         2.871712        -4.517443
 H         3.550785         0.716298        -3.531660
 H         1.036441        -0.147563        -2.928216
 H         2.478791        -0.640742        -1.995582
 H         0.384732         1.457203        -1.308673
 H         1.971220         3.153004        -0.521614
 H         3.259021         2.022569        -0.342185
 H         2.082707        -0.491696         0.413270
