19
Iteration:  2093charge 0 multiplicity 1
 O         4.359018         2.904799        -2.580601
 C         3.085088         2.391575        -2.375140
 C         2.100076         2.568400        -3.464886
 C         2.553195         1.168304        -3.064202
 C         1.762668         0.260830        -2.095938
 C         1.384716         1.201083        -0.934329
 C         2.509318         2.329768        -1.032598
 C         1.372459         0.439619         0.323500
 O         0.378775         0.189428         0.953390
 H         4.372342         3.875889        -2.599784
 H         1.017035         2.860590        -3.327226
 H         2.490831         2.709884        -4.440596
 H         3.135975         0.621670        -3.864894
 H         0.884696        -0.333508        -2.403659
 H         2.375455        -0.548275        -1.733685
 H         0.383244         1.607974        -1.088427
 H         2.131696         3.325073        -0.770410
 H         3.332974         2.003906        -0.346192
 H         2.377805         0.056794         0.665098
