19
Iteration:   702
 O         4.303081         2.821173        -2.477945
 C         2.882101         2.460576        -2.371574
 C         1.902732         2.620378        -3.410440
 C         2.557955         1.296845        -3.272144
 C         1.956318         0.249008        -2.223536
 C         1.461542         1.075617        -1.009591
 C         2.703130         2.155333        -0.886776
 C         1.320541         0.313424         0.252643
 O         0.355739         0.428996         1.063719
 H         4.474178         3.435217        -3.264985
 H         0.748986         2.737147        -2.964203
 H         2.100584         3.340442        -4.300970
 H         3.492981         1.026310        -3.818219
 H         1.274472        -0.419623        -2.672132
 H         2.790881        -0.312657        -1.782869
 H         0.578260         1.738430        -1.102376
 H         2.367981         3.037285        -0.307424
 H         3.539060         1.653407        -0.412871
 H         2.188084        -0.286373         0.646055
