19
Iteration:   308
 O         4.216356         3.237793        -2.583009
 C         3.086807         2.340906        -2.368939
 C         2.040979         2.471705        -3.450927
 C         2.645600         1.071693        -3.120164
 C         1.786017         0.277290        -2.231721
 C         1.455824         1.161570        -1.025158
 C         2.597856         2.116504        -0.971231
 C         1.268340         0.342786         0.292802
 O         0.370141         0.383132         1.103150
 H         5.022002         2.868545        -2.198218
 H         0.933896         2.692286        -3.166433
 H         2.274551         2.880170        -4.491008
 H         3.433132         0.739871        -3.801942
 H         0.939541        -0.128066        -2.734537
 H         2.345012        -0.589178        -1.783018
 H         0.530646         1.700939        -1.152818
 H         2.295360         2.904803        -0.303774
 H         3.472102         1.744005        -0.392514
 H         2.300142        -0.116783         0.537029
