19
Iteration:  3474
 O         4.365445         2.810802        -2.579245
 C         3.003404         2.434028        -2.421823
 C         2.074959         2.440803        -3.665009
 C         2.645034         1.155608        -3.077035
 C         1.782656         0.341211        -2.038500
 C         1.487224         1.313653        -0.898416
 C         2.478506         2.458035        -0.964381
 C         1.285023         0.497886         0.383282
 O         0.346091         0.018724         0.967540
 H         4.461426         3.787073        -2.602396
 H         0.927992         2.515461        -3.729943
 H         2.608599         2.706350        -4.647233
 H         3.507130         0.781308        -3.522314
 H         0.871929        -0.185842        -2.438915
 H         2.332087        -0.528593        -1.679594
 H         0.542105         1.866198        -0.983545
 H         1.989563         3.273518        -0.556912
 H         3.399586         2.325813        -0.377965
 H         2.406152         0.484284         0.839154
