19
Iteration:  3536charge 0 multiplicity 1
 O         4.337706         2.925788        -2.547807
 C         3.060594         2.355790        -2.402503
 C         2.061647         2.405308        -3.514828
 C         2.680211         1.068103        -3.086765
 C         1.781180         0.264821        -2.142686
 C         1.385468         1.316471        -0.910699
 C         2.485374         2.418593        -0.947056
 C         1.355376         0.523505         0.351698
 O         0.362556         0.138925         0.937178
 H         4.152398         3.784345        -2.983083
 H         1.074542         2.695822        -3.300328
 H         2.494740         2.614574        -4.508011
 H         3.335804         0.667626        -3.811299
 H         0.832559        -0.089473        -2.578637
 H         2.402117        -0.541013        -1.706736
 H         0.346843         1.670938        -1.123034
 H         2.150670         3.425572        -0.500164
 H         3.450728         2.049155        -0.437663
 H         2.353030         0.454191         0.886145
