19
Iteration:  1037charge 0 multiplicity 1
 O         4.358585         2.886662        -2.622510
 C         2.993077         2.494909        -2.333722
 C         1.917636         2.593478        -3.394062
 C         2.684518         1.244944        -3.018536
 C         1.738721         0.263960        -2.260717
 C         1.430542         1.233000        -0.961996
 C         2.678713         2.197313        -0.841294
 C         1.343636         0.464219         0.337856
 O         0.375330         0.124801         0.913591
 H         4.428578         3.072737        -3.613440
 H         0.828361         2.782758        -3.324297
 H         2.467558         2.983862        -4.360422
 H         3.082603         0.823300        -3.872459
 H         0.860586        -0.181375        -3.006866
 H         2.191077        -0.568151        -1.769214
 H         0.410510         1.780826        -0.945911
 H         2.272751         3.104290        -0.300059
 H         3.500261         1.691096        -0.365478
 H         2.291085         0.428548         0.906253
