19
Iteration:  4691
 O         4.349748         2.979037        -2.589353
 C         3.038592         2.436528        -2.395410
 C         1.997943         2.409211        -3.621693
 C         2.551926         1.128465        -3.139183
 C         1.999003         0.146928        -2.114594
 C         1.521722         1.131864        -0.933247
 C         2.545690         2.279713        -0.940312
 C         1.259786         0.482806         0.403490
 O         0.238036         0.399878         1.036202
 H         4.317580         3.868689        -2.224975
 H         0.876085         2.525056        -3.349070
 H         2.251612         2.824147        -4.582326
 H         3.203444         0.784416        -3.878682
 H         1.257522        -0.481602        -2.568976
 H         2.756191        -0.369432        -1.640481
 H         0.535617         1.484839        -1.259586
 H         2.245849         3.287861        -0.704228
 H         3.519396         2.122117        -0.352289
 H         2.166572        -0.285189         0.635374
