19
Iteration:   403charge 0 multiplicity 1
 O         4.401967         3.069242        -2.697556
 C         3.102676         2.372228        -2.418356
 C         1.969532         2.575349        -3.402304
 C         2.535190         1.104021        -3.087860
 C         1.892570         0.274724        -2.040170
 C         1.429804         1.285339        -0.905210
 C         2.613389         2.325130        -0.928612
 C         1.272637         0.369379         0.378101
 O         0.252010         0.065655         0.916958
 H         4.505908         2.971732        -3.682208
 H         1.047770         2.946904        -3.093499
 H         2.313474         2.950311        -4.361639
 H         3.111222         0.670808        -3.931667
 H         0.979143        -0.282663        -2.407287
 H         2.657924        -0.439719        -1.629360
 H         0.415085         1.754540        -1.075269
 H         2.470324         3.387008        -0.666073
 H         3.470239         2.045825        -0.264180
 H         2.286141         0.166081         0.786048
