19
Iteration:  4273
 O         4.351530         3.065157        -2.543215
 C         3.061297         2.371616        -2.384914
 C         2.049987         2.437640        -3.543194
 C         2.705917         1.114114        -3.195190
 C         1.872406         0.136930        -2.177981
 C         1.382811         1.124392        -0.983244
 C         2.454946         2.231836        -0.979289
 C         1.276021         0.378584         0.345047
 O         0.352816         0.464379         1.158106
 H         4.184426         4.042498        -2.687797
 H         1.113515         2.744269        -3.409943
 H         2.435763         2.948535        -4.431307
 H         3.372550         0.689543        -3.834780
 H         0.994087        -0.193038        -2.688233
 H         2.533518        -0.632470        -1.731489
 H         0.457595         1.475884        -1.396396
 H         2.079108         3.179147        -0.612251
 H         3.283123         2.020314        -0.305654
 H         2.151948        -0.278289         0.624074
