19
Iteration:  4848
 O         4.356445         2.931232        -2.380228
 C         3.085382         2.328312        -2.399203
 C         2.017908         2.334071        -3.500029
 C         2.667329         1.134408        -3.090530
 C         1.855561         0.126805        -2.273879
 C         1.302718         1.107334        -1.100419
 C         2.297769         2.402813        -0.991217
 C         1.394557         0.440352         0.283327
 O         0.520796         0.534465         1.095685
 H         4.226610         3.950885        -2.380352
 H         0.979225         2.537487        -3.258799
 H         2.414478         2.794118        -4.445348
 H         3.479456         0.744481        -3.732847
 H         0.973619        -0.492775        -2.731132
 H         2.586024        -0.480595        -1.801423
 H         0.294124         1.392954        -1.507803
 H         1.703408         3.347111        -0.846983
 H         2.930618         2.408572        -0.051089
 H         2.444260        -0.133676         0.511038
