19
Iteration:  2281
 O         4.405192         2.917017        -2.595139
 C         3.029380         2.436538        -2.405882
 C         1.965465         2.431566        -3.455180
 C         2.665679         1.087345        -3.063261
 C         1.857328         0.233984        -2.160045
 C         1.351737         1.179024        -1.020012
 C         2.402110         2.285121        -0.984902
 C         1.361862         0.534266         0.341300
 O         0.394438         0.283326         0.973225
 H         4.715868         3.656322        -2.035234
 H         0.974088         2.860606        -3.102901
 H         2.355586         2.865764        -4.344507
 H         3.298762         0.629439        -3.847930
 H         1.081066        -0.374055        -2.590951
 H         2.464616        -0.443695        -1.649513
 H         0.426268         1.740855        -1.005669
 H         2.075015         3.293918        -0.608154
 H         3.347196         1.989918        -0.404218
 H         2.378310         0.322869         0.839138
