19
Iteration:  2466charge 0 multiplicity 1
 O         4.377476         2.893614        -2.421133
 C         2.969735         2.431951        -2.315134
 C         2.021274         2.449623        -3.527727
 C         2.646607         1.161817        -3.088766
 C         1.815720         0.203130        -2.210881
 C         1.338864         1.057999        -1.039045
 C         2.398631         2.339880        -0.864370
 C         1.388593         0.427884         0.177015
 O         0.512658         0.489925         1.057136
 H         4.510103         3.098197        -3.374660
 H         0.939167         2.465003        -3.335630
 H         2.255702         2.746789        -4.620146
 H         3.313901         0.594523        -3.771028
 H         1.045098        -0.213644        -2.817382
 H         2.464831        -0.710125        -1.816562
 H         0.413341         1.621385        -1.261509
 H         1.870827         3.257382        -0.619926
 H         3.183912         2.190919        -0.166282
 H         2.328398        -0.039390         0.380131
