19
Iteration:  3514charge 0 multiplicity 1
 O         4.363000         2.943167        -2.598221
 C         3.078716         2.311813        -2.304337
 C         2.030891         2.403182        -3.389500
 C         2.656434         0.987653        -3.009220
 C         1.698493         0.289362        -2.054264
 C         1.393947         1.351895        -1.002766
 C         2.499851         2.392405        -0.955986
 C         1.378152         0.577362         0.242800
 O         0.447881         0.143818         0.829906
 H         4.019115         3.862596        -2.635650
 H         1.023217         2.425368        -3.189700
 H         2.344830         2.856532        -4.350344
 H         3.301029         0.469715        -3.695995
 H         0.711918        -0.089666        -2.347444
 H         2.360221        -0.471792        -1.571213
 H         0.453256         1.796045        -1.402058
 H         1.939578         3.413907        -1.003636
 H         3.159004         2.348506         0.026134
 H         2.399573         0.230756         0.470378
