19
Iteration:  4105
 O         4.377917         2.963466        -2.604432
 C         3.081277         2.405394        -2.458966
 C         2.141045         2.486551        -3.562185
 C         2.653837         1.088878        -3.120893
 C         1.814479         0.208353        -1.974163
 C         1.392983         1.254183        -0.923794
 C         2.430855         2.359601        -1.043725
 C         1.286838         0.519048         0.409691
 O         0.316444         0.098743         1.029170
 H         4.352145         3.866249        -3.036873
 H         1.196278         2.978417        -3.509327
 H         2.554457         2.946162        -4.509484
 H         3.420812         0.594141        -3.670774
 H         0.915876        -0.106721        -2.557976
 H         2.340037        -0.817340        -1.680518
 H         0.382451         1.668764        -1.165838
 H         2.023848         3.375214        -0.752091
 H         3.234009         2.266072        -0.291658
 H         2.368880         0.364955         0.802894
