19
Iteration:   404charge 0 multiplicity 1
 O         4.401572         3.073805        -2.691685
 C         3.105257         2.371276        -2.419539
 C         1.962049         2.579423        -3.402254
 C         2.538924         1.091901        -3.090698
 C         1.882413         0.277116        -2.031856
 C         1.426081         1.294907        -0.912733
 C         2.614675         2.323571        -0.932190
 C         1.279824         0.373048         0.379380
 O         0.251416         0.063090         0.914142
 H         4.500051         2.955717        -3.665049
 H         1.001983         2.960049        -3.085816
 H         2.349222         2.930281        -4.385018
 H         3.118477         0.664088        -3.915308
 H         0.981993        -0.269273        -2.406960
 H         2.678060        -0.453117        -1.621459
 H         0.413961         1.748797        -1.091830
 H         2.494049         3.373824        -0.649427
 H         3.485432         2.020622        -0.260636
 H         2.328068         0.147721         0.773180
