19
Iteration:  4724charge 0 multiplicity 1
 O         4.238376         2.980753        -2.592641
 C         2.937574         2.409683        -2.322449
 C         2.087789         2.433589        -3.550562
 C         2.696923         1.113358        -3.098750
 C         1.965241         0.184449        -2.179780
 C         1.434129         1.108326        -0.980297
 C         2.550388         2.217183        -0.984387
 C         1.301729         0.470675         0.355754
 O         0.301307         0.489460         1.058556
 H         4.288928         3.966170        -2.673726
 H         0.983540         2.437586        -3.238542
 H         2.522571         2.910790        -4.436778
 H         3.450471         0.724683        -3.812682
 H         1.131128        -0.433568        -2.559112
 H         2.675851        -0.543453        -1.775809
 H         0.461180         1.552226        -1.243843
 H         2.153829         3.129131        -0.518618
 H         3.387873         1.694570        -0.389798
 H         2.133649        -0.193964         0.653642
