19
Iteration:   679
 O         4.320412         2.961740        -2.521573
 C         3.020449         2.384760        -2.343453
 C         1.923368         2.661751        -3.375955
 C         2.563115         1.265113        -3.156629
 C         1.930855         0.242913        -2.311901
 C         1.469498         1.071782        -1.064869
 C         2.576469         2.071875        -0.933828
 C         1.323710         0.443307         0.332968
 O         0.369713         0.362397         1.114818
 H         4.449533         3.146779        -3.440695
 H         0.750278         3.034630        -3.182230
 H         2.378706         2.907982        -4.412773
 H         3.208430         0.920140        -4.000075
 H         1.123377        -0.256679        -2.803889
 H         2.617074        -0.447025        -1.871427
 H         0.466684         1.532624        -1.370909
 H         2.260077         2.841412        -0.170627
 H         3.236131         1.445271        -0.390996
 H         2.292458         0.004024         0.737734
