19
Iteration:  1649
 O         4.407366         2.751714        -2.532221
 C         3.056596         2.403481        -2.398459
 C         1.939111         2.624922        -3.345616
 C         2.461457         1.177164        -3.106636
 C         1.674940         0.297907        -2.097665
 C         1.411046         1.385903        -0.951683
 C         2.549735         2.405003        -1.010887
 C         1.481848         0.473293         0.302901
 O         0.493449         0.027751         0.787586
 H         4.631097         2.952821        -1.631927
 H         1.058793         3.091505        -2.952849
 H         2.197606         2.891365        -4.304353
 H         2.915120         0.813461        -4.044684
 H         0.752931        -0.162680        -2.375309
 H         2.167492        -0.607378        -1.758938
 H         0.322611         1.777363        -1.139525
 H         2.347775         3.460943        -0.626424
 H         3.272508         1.801890        -0.404492
 H         2.545709         0.294143         0.769050
