19
Iteration:  2634charge 0 multiplicity 1
 O         4.328778         2.817109        -2.615754
 C         3.014808         2.492664        -2.375920
 C         2.031400         2.545780        -3.615667
 C         2.603916         1.241897        -3.096638
 C         1.932354         0.255756        -2.221886
 C         1.566612         1.126717        -0.881390
 C         2.518074         2.230258        -0.998503
 C         1.289414         0.568582         0.491788
 O         0.221581         0.188862         1.036116
 H         4.617064         3.720010        -2.895329
 H         0.979810         2.541685        -3.400822
 H         2.445943         2.968736        -4.543331
 H         3.343217         0.685622        -3.772850
 H         0.979333        -0.224886        -2.544140
 H         2.579358        -0.664364        -1.970799
 H         0.550218         1.577297        -0.957367
 H         2.175457         3.211899        -0.593503
 H         3.427372         2.039206        -0.536708
 H         2.126685         0.509371         1.200830
