19
Iteration:   713
 O         4.294989         2.855196        -2.472381
 C         3.018395         2.422916        -2.372604
 C         1.865746         2.639167        -3.367605
 C         2.520397         1.210094        -3.191858
 C         1.926648         0.302901        -2.224362
 C         1.553971         1.120465        -0.980203
 C         2.617877         2.166874        -0.940316
 C         1.318255         0.251285         0.288846
 O         0.377236         0.459111         0.982512
 H         4.421529         3.610323        -3.058492
 H         0.716911         2.845718        -3.003755
 H         2.148241         3.094665        -4.379584
 H         3.235696         0.898128        -3.997556
 H         1.156582        -0.369292        -2.515205
 H         2.746816        -0.357281        -1.872171
 H         0.540701         1.545570        -1.148906
 H         2.279885         3.040206        -0.350293
 H         3.568797         1.866987        -0.489523
 H         2.086989        -0.558567         0.447595
