19
Iteration:   631
 O         4.272337         2.984563        -2.382531
 C         3.023986         2.410776        -2.377955
 C         1.966346         2.450453        -3.487054
 C         2.579572         1.135079        -3.102846
 C         1.717992         0.368690        -2.222934
 C         1.476256         1.197826        -0.895965
 C         2.681609         2.286651        -0.962934
 C         1.380683         0.285325         0.216301
 O         0.446419         0.311288         0.965337
 H         4.498497         3.275418        -3.319286
 H         0.988273         2.717013        -3.190781
 H         2.246248         2.837576        -4.438281
 H         3.033123         0.616031        -3.919497
 H         0.667009         0.158198        -2.610485
 H         2.130922        -0.601086        -1.875567
 H         0.500636         1.690812        -1.093476
 H         2.102222         3.181725        -0.622218
 H         3.633794         2.098951        -0.335280
 H         2.301400        -0.316645         0.423020
