19
Iteration:  4714charge 0 multiplicity 1
 O         4.251011         2.943897        -2.577993
 C         3.002455         2.448214        -2.472533
 C         2.047539         2.429379        -3.547738
 C         2.692108         1.122326        -3.161590
 C         1.987866         0.248524        -2.083725
 C         1.458339         1.086440        -0.980444
 C         2.511521         2.195387        -0.947559
 C         1.278606         0.402442         0.410188
 O         0.261420         0.476644         1.066647
 H         4.110087         3.930213        -2.502539
 H         0.893135         2.726696        -3.544973
 H         2.504515         2.957017        -4.425870
 H         3.559456         0.747483        -3.813699
 H         1.227200        -0.246349        -2.695796
 H         2.631932        -0.390109        -1.562691
 H         0.440302         1.446433        -1.230131
 H         2.367502         3.150229        -0.466820
 H         3.566929         1.912660        -0.625830
 H         2.265001        -0.147416         0.785343
