19
Iteration:    90charge 0 multiplicity 1
 O         4.195684         3.038324        -2.328399
 C         2.949419         2.349642        -2.336981
 C         2.175537         2.456599        -3.632772
 C         2.683075         1.117137        -3.100918
 C         1.688245         0.202450        -2.361653
 C         1.394335         1.085419        -1.024165
 C         2.296099         2.364148        -1.017242
 C         1.465526         0.441692         0.316516
 O         0.588266         0.388933         1.173897
 H         4.886801         2.444042        -2.652809
 H         1.228353         2.892468        -3.904456
 H         2.909897         2.754762        -4.394764
 H         3.546659         0.656689        -3.686165
 H         0.733876         0.158348        -2.861825
 H         2.060870        -0.806114        -2.202939
 H         0.384044         1.348277        -1.129480
 H         1.689588         3.230504        -0.791062
 H         3.113852         2.268426        -0.293949
 H         2.589219         0.027413         0.624561
