19
Iteration:  2254
 O         4.320773         2.971506        -2.612429
 C         3.160391         2.351515        -2.376142
 C         1.983711         2.425432        -3.382075
 C         2.592613         1.106424        -3.102071
 C         1.929193         0.208706        -2.124412
 C         1.389281         1.220905        -0.975210
 C         2.575115         2.342061        -0.984352
 C         1.307172         0.475203         0.296992
 O         0.282660         0.259554         0.981455
 H         4.317382         3.866254        -3.031738
 H         1.026835         2.729665        -3.016441
 H         2.282296         2.985889        -4.296600
 H         3.210972         0.586843        -3.818532
 H         0.979412        -0.208878        -2.539878
 H         2.498924        -0.730040        -1.699457
 H         0.469206         1.843575        -1.042328
 H         2.249068         3.355345        -0.905055
 H         3.282529         2.278441        -0.227305
 H         2.293000         0.033633         0.771113
