19
Iteration:  3403
 O         4.374539         2.820437        -2.561453
 C         3.024251         2.368988        -2.333827
 C         1.966287         2.387830        -3.398250
 C         2.649179         1.089226        -3.102926
 C         1.845884         0.262762        -2.090686
 C         1.366998         1.476583        -0.981122
 C         2.489281         2.366378        -0.976604
 C         1.398444         0.577876         0.304389
 O         0.390618         0.092308         0.843124
 H         4.340677         3.804184        -2.696856
 H         0.941945         2.341071        -3.041499
 H         2.140686         2.941889        -4.250536
 H         3.474988         0.630107        -3.744239
 H         0.972691        -0.294121        -2.440477
 H         2.331147        -0.527581        -1.481838
 H         0.325766         1.744181        -1.223296
 H         2.184336         3.522448        -0.951116
 H         3.240697         2.205413        -0.143442
 H         2.438866         0.666628         0.740480
