19
Iteration:  4123charge 0 multiplicity 1
 O         4.400184         2.977999        -2.515303
 C         3.098961         2.342721        -2.384796
 C         2.056710         2.371488        -3.505950
 C         2.653779         1.045328        -3.012263
 C         1.767087         0.255029        -2.142619
 C         1.286429         1.261211        -1.000167
 C         2.464076         2.413204        -1.010660
 C         1.394681         0.577243         0.357989
 O         0.407034         0.174740         0.943306
 H         4.237913         3.941169        -2.738830
 H         1.006004         2.575255        -3.257920
 H         2.292593         2.584715        -4.596955
 H         3.151884         0.583897        -3.812060
 H         0.915032        -0.288313        -2.526811
 H         2.383955        -0.489091        -1.769040
 H         0.335949         1.718921        -1.139662
 H         2.036557         3.340071        -0.716841
 H         3.190493         2.055903        -0.313484
 H         2.395415         0.341094         0.739272
