19
Iteration:  3311charge 0 multiplicity 1
 O         4.311332         2.938527        -2.575384
 C         3.053833         2.370946        -2.344863
 C         2.024482         2.483447        -3.468717
 C         2.649207         1.116352        -3.006712
 C         1.804188         0.162152        -2.125753
 C         1.457850         1.247226        -1.094858
 C         2.516339         2.267674        -0.875317
 C         1.375470         0.590025         0.304061
 O         0.364780         0.270886         0.921676
 H         4.041027         3.868564        -2.755426
 H         0.994143         2.445540        -3.081991
 H         2.092029         2.865048        -4.547073
 H         3.325489         0.681580        -3.708525
 H         0.916647        -0.384101        -2.422851
 H         2.423114        -0.703977        -1.863198
 H         0.536220         1.752211        -1.466814
 H         2.073652         3.189619        -0.426715
 H         3.404115         1.805225        -0.336143
 H         2.318102         0.282741         0.744992
