19
Iteration:  1732
 O         4.330093         3.013280        -2.489468
 C         3.013778         2.367416        -2.403722
 C         2.009444         2.554036        -3.443810
 C         2.589610         1.124299        -3.115667
 C         1.643285         0.411348        -2.180850
 C         1.425741         1.277010        -0.889100
 C         2.705282         2.284724        -0.917060
 C         1.393491         0.377046         0.264385
 O         0.377678         0.121665         0.909298
 H         4.661671         2.393572        -3.198373
 H         0.914539         2.727535        -3.026236
 H         2.178580         2.928581        -4.444350
 H         3.032287         0.522226        -3.850195
 H         0.623449         0.144752        -2.571956
 H         2.257961        -0.434302        -1.827842
 H         0.545269         1.840202        -0.992870
 H         2.705641         3.255873        -0.403582
 H         3.578015         1.731591        -0.425194
 H         2.324988        -0.008940         0.587338
