19
Iteration:  2613charge 0 multiplicity 1
 O         4.351643         2.907521        -2.580594
 C         3.007962         2.338397        -2.362914
 C         2.011664         2.570682        -3.519400
 C         2.601198         1.099191        -3.197621
 C         1.928723         0.211855        -2.182760
 C         1.435067         1.147187        -1.032031
 C         2.570465         2.320760        -0.899668
 C         1.340683         0.523635         0.445237
 O         0.267471         0.275360         1.007020
 H         4.194234         3.789597        -2.922768
 H         1.066577         2.935311        -3.216972
 H         2.430205         2.887513        -4.478054
 H         3.300829         0.801553        -4.043867
 H         1.028066        -0.465029        -2.447510
 H         2.525160        -0.474481        -1.507770
 H         0.415819         1.568304        -1.139965
 H         2.262950         3.285595        -0.456282
 H         3.355985         1.915705        -0.325546
 H         2.277975         0.290734         1.035469
