19
Iteration:   790charge 0 multiplicity 1
 O         4.263996         2.880884        -2.502917
 C         2.922754         2.533785        -2.293694
 C         2.047395         2.491290        -3.545943
 C         2.535090         1.216694        -3.108418
 C         1.736109         0.321976        -2.263200
 C         1.504633         1.192931        -0.983269
 C         2.685315         2.117127        -0.924423
 C         1.356409         0.421050         0.298997
 O         0.414483         0.298145         1.022389
 H         4.456091         3.870122        -2.418695
 H         0.818512         2.460823        -3.499844
 H         2.328934         3.112751        -4.390076
 H         3.364974         0.899510        -3.685055
 H         0.940099        -0.182858        -2.716484
 H         2.397566        -0.433314        -1.859911
 H         0.543136         1.723648        -1.091694
 H         2.500868         2.847903        -0.175577
 H         3.564991         1.527706        -0.733538
 H         2.287909        -0.221123         0.434235
