19
Iteration:  1636charge 0 multiplicity 1
 O         4.383445         2.718849        -2.536524
 C         3.000741         2.342430        -2.384646
 C         1.947159         2.635591        -3.450710
 C         2.453517         1.193261        -3.087178
 C         1.720913         0.362404        -2.141099
 C         1.406888         1.348948        -0.881632
 C         2.573337         2.334966        -0.949573
 C         1.444234         0.561752         0.310076
 O         0.498840        -0.001562         0.795404
 H         4.768699         3.302991        -1.808999
 H         0.890007         3.016484        -3.115602
 H         2.275999         3.116465        -4.377061
 H         3.077305         0.651436        -3.778360
 H         0.746783         0.065087        -2.615864
 H         2.365078        -0.413735        -1.812021
 H         0.362652         1.827509        -0.927679
 H         2.376703         3.350321        -0.458031
 H         3.479292         2.094613        -0.410119
 H         2.496233         0.150059         0.501068
