19
Iteration:  1681charge 0 multiplicity 1
 O         4.378550         2.887012        -2.661558
 C         3.117583         2.349512        -2.376483
 C         2.036749         2.632918        -3.422607
 C         2.494252         1.236867        -3.198972
 C         1.711437         0.329175        -2.180916
 C         1.395898         1.324358        -0.880314
 C         2.520178         2.389622        -0.945898
 C         1.424404         0.440705         0.428829
 O         0.389675        -0.037842         0.926013
 H         4.963609         2.201888        -2.224491
 H         1.098793         3.148128        -3.221840
 H         2.522394         2.984364        -4.288914
 H         3.030685         0.710453        -3.990295
 H         0.678585         0.034008        -2.429178
 H         2.276907        -0.553921        -1.919451
 H         0.408653         1.866347        -1.019052
 H         2.261921         3.397080        -0.523390
 H         3.232015         2.014067        -0.249138
 H         2.344059         0.173336         0.874452
