19
Iteration:  2179charge 0 multiplicity 1
 O         4.273076         3.190521        -2.650733
 C         3.158311         2.257186        -2.364172
 C         1.931326         2.427997        -3.348732
 C         2.645024         1.045859        -3.141964
 C         1.859275         0.225885        -2.136276
 C         1.437312         1.234908        -0.943300
 C         2.647364         2.218226        -0.912692
 C         1.306984         0.543882         0.354605
 O         0.243419         0.237228         0.874183
 H         4.894329         2.618954        -3.115068
 H         1.017156         2.897397        -2.975232
 H         2.270176         3.087881        -4.164102
 H         3.078543         0.475025        -3.986445
 H         1.017638        -0.220911        -2.469737
 H         2.604442        -0.446588        -1.699982
 H         0.463620         1.798800        -1.012182
 H         2.373013         3.229022        -0.664411
 H         3.462228         2.000911        -0.110092
 H         2.235085         0.278960         0.857944
