19
Iteration:  4407charge 0 multiplicity 1
 O         4.292532         2.908939        -2.507225
 C         2.967182         2.434035        -2.441978
 C         2.065045         2.420709        -3.638699
 C         2.714115         1.151030        -3.096062
 C         1.873352         0.247816        -2.186410
 C         1.427476         1.168807        -0.905521
 C         2.490521         2.293811        -0.983003
 C         1.331947         0.322804         0.376346
 O         0.316100         0.422761         1.072138
 H         4.382154         3.890163        -2.491483
 H         0.985490         2.775811        -3.379037
 H         2.322861         2.864658        -4.580849
 H         3.579521         0.802560        -3.849807
 H         0.997881        -0.311941        -2.602568
 H         2.686003        -0.430924        -1.749846
 H         0.453191         1.619116        -1.188115
 H         2.153610         3.138721        -0.429199
 H         3.455010         2.005612        -0.519633
 H         2.319724        -0.123391         0.592471
