19
Iteration:   287
 O         4.178720         3.176749        -2.579439
 C         2.983968         2.442122        -2.270974
 C         2.133398         2.476887        -3.572148
 C         2.710772         1.104146        -3.106769
 C         1.739080         0.238345        -2.324435
 C         1.436600         1.033411        -0.970682
 C         2.574997         2.224482        -0.836163
 C         1.366121         0.313491         0.357466
 O         0.406350         0.461293         1.074632
 H         4.802153         2.476314        -2.937290
 H         0.927983         2.506379        -3.560051
 H         2.747622         3.060798        -4.418080
 H         3.319639         0.657761        -3.906152
 H         0.802294         0.140896        -2.808269
 H         2.099692        -0.774761        -2.126729
 H         0.437354         1.385588        -1.086422
 H         2.219590         3.113741        -0.294513
 H         3.367494         1.949295        -0.140546
 H         2.088370        -0.692052         0.379959
