19
Iteration:  2779charge 0 multiplicity 1
 O         4.429082         2.772580        -2.503533
 C         3.070332         2.364181        -2.388612
 C         2.002754         2.510773        -3.510625
 C         2.574409         1.071093        -3.073768
 C         1.716360         0.288843        -2.101090
 C         1.312720         1.386065        -1.052537
 C         2.509812         2.381938        -1.003354
 C         1.322647         0.751311         0.432373
 O         0.534189        -0.029756         0.872639
 H         4.298302         3.720674        -2.435023
 H         0.949303         2.660436        -3.375966
 H         2.400682         2.759089        -4.438475
 H         3.338779         0.591534        -3.588823
 H         0.830139        -0.227960        -2.678856
 H         2.287881        -0.435290        -1.426058
 H         0.291836         1.782716        -1.240440
 H         2.145772         3.409039        -0.736489
 H         3.113723         2.044131        -0.178116
 H         2.346705         0.751157         0.890636
