19
Iteration:  2693
 O         4.389295         2.890161        -2.616038
 C         3.079300         2.370826        -2.361148
 C         2.001136         2.345060        -3.469223
 C         2.573706         1.034015        -2.970223
 C         1.790646         0.292445        -2.007717
 C         1.296356         1.427470        -0.912317
 C         2.612253         2.467648        -0.928630
 C         1.358387         0.528918         0.170194
 O         0.396477         0.084252         0.822867
 H         4.398411         3.853065        -2.710314
 H         1.007939         2.716810        -3.162781
 H         2.258390         2.777023        -4.389152
 H         3.091693         0.371648        -3.583035
 H         0.816022        -0.071952        -2.493882
 H         2.323311        -0.453349        -1.424009
 H         0.280316         1.812790        -1.008515
 H         2.482613         3.476669        -0.657309
 H         3.336147         2.031274        -0.262060
 H         2.409823         0.295162         0.455088
