19
Iteration:   374
 O         4.400307         2.841376        -2.714665
 C         2.947685         2.416752        -2.375276
 C         1.897667         2.640841        -3.354045
 C         2.606109         1.217681        -3.100434
 C         2.022056         0.223095        -2.170407
 C         1.586465         1.141090        -0.938885
 C         2.522988         2.365061        -0.914028
 C         1.354733         0.362921         0.488675
 O         0.196299         0.207160         0.880091
 H         4.337848         3.577989        -3.359887
 H         0.791014         2.993571        -3.207695
 H         2.144977         3.130136        -4.379265
 H         3.360630         0.931747        -3.798672
 H         1.096241        -0.215613        -2.456144
 H         2.639212        -0.673139        -1.835920
 H         0.592668         1.496808        -1.135242
 H         2.150241         3.367152        -0.748108
 H         3.424779         2.172039        -0.245615
 H         2.177662         0.030883         1.221437
