19
Iteration:  1930charge 0 multiplicity 1
 O         4.330602         2.895135        -2.352564
 C         3.089142         2.312042        -2.363051
 C         2.095514         2.571935        -3.527398
 C         2.526488         1.157018        -3.198286
 C         1.752085         0.375349        -2.285211
 C         1.384870         1.201142        -1.019840
 C         2.437103         2.268052        -0.975668
 C         1.395265         0.293907         0.283634
 O         0.499347         0.352549         1.127495
 H         4.324872         3.768404        -2.780010
 H         1.064936         2.717853        -3.234354
 H         2.247996         2.878827        -4.571071
 H         3.040441         0.581720        -4.014452
 H         0.853127        -0.184048        -2.719071
 H         2.393933        -0.478445        -1.900420
 H         0.471231         1.680697        -1.198151
 H         2.067138         3.269709        -0.700895
 H         3.297612         1.972066        -0.294285
 H         2.315292        -0.316199         0.389206
