19
Iteration:  3390
 O         4.334232         2.820517        -2.619617
 C         3.053580         2.366319        -2.406591
 C         1.990397         2.408206        -3.515739
 C         2.698752         1.077048        -3.026583
 C         1.802791         0.349134        -2.004981
 C         1.349975         1.281555        -0.905797
 C         2.500112         2.454213        -0.908488
 C         1.387885         0.547989         0.301847
 O         0.385583         0.132758         0.792268
 H         4.398940         3.788455        -2.669319
 H         0.944112         2.550758        -3.171472
 H         2.192699         2.985994        -4.448305
 H         3.451894         0.585211        -3.599229
 H         0.943040        -0.147311        -2.442391
 H         2.560189        -0.376973        -1.625763
 H         0.334615         1.802054        -0.991597
 H         2.054257         3.427061        -0.432629
 H         3.329196         2.087220        -0.247781
 H         2.388189         0.226735         0.783320
