19
Iteration:  4096
 O         4.337721         2.919377        -2.624354
 C         3.060545         2.392851        -2.416799
 C         2.162154         2.524907        -3.645242
 C         2.652522         1.111831        -3.082300
 C         1.820457         0.270099        -2.040990
 C         1.386407         1.184622        -0.937914
 C         2.512224         2.456842        -1.019768
 C         1.286968         0.500763         0.476897
 O         0.285035         0.083817         1.031652
 H         4.244214         3.779590        -3.113666
 H         1.131981         2.802258        -3.448964
 H         2.698437         2.806392        -4.530203
 H         3.445606         0.650776        -3.756867
 H         0.884934        -0.268170        -2.325878
 H         2.598946        -0.587281        -1.687243
 H         0.415883         1.721827        -1.234743
 H         1.885196         3.363044        -0.772737
 H         3.367198         2.168200        -0.288429
 H         2.300197         0.207229         0.969575
