19
Iteration:  4926
 O         4.291813         2.969966        -2.502882
 C         3.025084         2.390977        -2.466540
 C         2.181339         2.387309        -3.666889
 C         2.718824         1.105658        -3.000364
 C         1.832372         0.215870        -2.170101
 C         1.290058         1.185536        -0.991601
 C         2.435347         2.413110        -1.074779
 C         1.321835         0.346321         0.368426
 O         0.425701         0.352843         1.187913
 H         4.052009         3.924503        -2.422112
 H         1.143572         2.629509        -3.640743
 H         2.703736         2.698453        -4.513950
 H         3.444832         0.588052        -3.573054
 H         0.845545        -0.083312        -2.695616
 H         2.465627        -0.481832        -1.707761
 H         0.201531         1.598932        -1.248974
 H         1.905090         3.393929        -0.751349
 H         3.367228         2.266320        -0.438271
 H         2.249855        -0.231792         0.394716
