19
Iteration:  2070charge 0 multiplicity 1
 O         4.365328         2.870618        -2.530269
 C         3.081617         2.342793        -2.311724
 C         1.992985         2.476062        -3.447774
 C         2.716576         1.139777        -3.132093
 C         1.743099         0.306842        -2.259604
 C         1.331841         1.290806        -1.045502
 C         2.458728         2.365488        -0.836248
 C         1.370698         0.515632         0.307908
 O         0.476014         0.179207         0.995409
 H         4.381465         3.413596        -3.377971
 H         0.840530         2.470135        -3.231029
 H         2.282116         2.935645        -4.409365
 H         3.457351         0.582695        -3.819709
 H         0.826185        -0.042864        -2.714388
 H         2.065685        -0.612862        -1.828228
 H         0.333793         1.827287        -1.072783
 H         1.896274         3.206883        -0.442498
 H         3.231697         1.939024        -0.094830
 H         2.400989         0.237935         0.585610
