19
Iteration:  3588
 O         4.286196         2.886639        -2.569535
 C         3.085200         2.319271        -2.414654
 C         2.048677         2.533325        -3.537836
 C         2.615779         1.146539        -3.118467
 C         1.888252         0.257874        -2.071717
 C         1.459819         1.213904        -0.966832
 C         2.499989         2.315014        -0.983206
 C         1.332289         0.491000         0.395080
 O         0.316780         0.248772         0.989661
 H         4.161745         3.872599        -2.590211
 H         1.007934         2.625696        -3.462760
 H         2.551451         2.972115        -4.428295
 H         3.376197         0.585230        -3.719133
 H         1.082996        -0.298089        -2.550384
 H         2.655930        -0.474335        -1.663156
 H         0.416641         1.678757        -1.332943
 H         1.912266         3.221545        -0.705088
 H         3.261166         2.279451        -0.287239
 H         2.279583         0.048179         0.721980
