19
Iteration:  3227charge 0 multiplicity 1
 O         4.296280         2.954602        -2.626083
 C         2.965797         2.396175        -2.341700
 C         2.095256         2.467701        -3.513701
 C         2.725763         1.172785        -3.145478
 C         1.959872         0.249901        -2.189378
 C         1.357239         1.094793        -0.964071
 C         2.445696         2.189020        -0.895361
 C         1.224605         0.255616         0.229789
 O         0.443049         0.565295         1.148559
 H         4.055073         3.880852        -2.468186
 H         1.044508         2.698666        -3.327605
 H         2.544002         3.020966        -4.382172
 H         3.520489         0.783782        -3.686973
 H         1.117506        -0.293356        -2.623507
 H         2.769308        -0.435423        -1.803279
 H         0.361375         1.569894        -1.292201
 H         1.858369         3.161060        -0.571241
 H         3.332877         2.056926        -0.259054
 H         1.794269        -0.661928         0.229296
