19
Iteration:   930charge 0 multiplicity 1
 O         4.448845         2.875698        -2.709349
 C         3.069803         2.449876        -2.321363
 C         2.082542         2.537830        -3.431844
 C         2.597650         1.145176        -3.092974
 C         1.588650         0.292849        -2.269226
 C         1.354659         1.287792        -0.928241
 C         2.519066         2.380597        -0.853968
 C         1.448802         0.476546         0.385574
 O         0.417011         0.019882         0.940976
 H         4.580876         3.729394        -2.218408
 H         1.023194         2.792596        -3.133964
 H         2.370471         3.062251        -4.409119
 H         3.225577         0.692803        -3.792885
 H         0.560635         0.122639        -2.737824
 H         1.856548        -0.739416        -1.890328
 H         0.220962         1.554099        -0.925417
 H         2.072145         3.441323        -0.689565
 H         3.356869         2.051149        -0.107981
 H         2.469275         0.111008         0.668858
