19
Iteration:    74charge 0 multiplicity 1
 O         4.302829         3.018807        -2.322431
 C         3.023353         2.410420        -2.424699
 C         2.219572         2.550651        -3.651602
 C         2.579512         1.139485        -3.188147
 C         1.771879         0.268280        -2.243201
 C         1.361919         0.962528        -0.994892
 C         2.217790         2.284411        -1.080180
 C         1.505009         0.424069         0.433693
 O         0.515810         0.392731         1.145347
 H         4.967572         2.612418        -2.934045
 H         1.179105         2.759396        -3.359365
 H         2.593731         2.861943        -4.609990
 H         3.058037         0.546213        -3.909668
 H         0.928851        -0.202305        -2.805587
 H         2.382725        -0.646585        -2.066417
 H         0.236774         1.320508        -1.048527
 H         1.569281         3.182727        -0.914883
 H         2.860331         2.391295        -0.194779
 H         2.496779         0.127558         0.811240
