19
Iteration:  4053
 O         4.309397         2.859710        -2.591876
 C         3.019623         2.407861        -2.412941
 C         1.997681         2.443526        -3.496236
 C         2.632094         1.106134        -2.963579
 C         1.856924         0.213182        -1.980244
 C         1.495001         1.277668        -0.970540
 C         2.517131         2.423120        -1.000273
 C         1.348921         0.543321         0.322292
 O         0.322005         0.188783         0.825220
 H         4.370517         3.819554        -2.298059
 H         0.965929         2.534384        -3.254672
 H         2.057846         2.711802        -4.536299
 H         3.322541         0.509590        -3.595120
 H         1.225094        -0.427547        -2.558597
 H         2.609286        -0.473286        -1.611482
 H         0.481540         1.775691        -1.138496
 H         2.161557         3.446471        -0.690312
 H         3.496783         2.055026        -0.488400
 H         2.309901         0.296066         0.782182
