19
Iteration:  2083
 O         4.399208         2.905089        -2.570296
 C         3.062794         2.383365        -2.354567
 C         2.087071         2.474617        -3.467037
 C         2.561995         1.104678        -3.081421
 C         1.746749         0.310132        -2.148956
 C         1.363476         1.239299        -0.982116
 C         2.434535         2.317590        -0.932328
 C         1.406199         0.469140         0.300261
 O         0.409910         0.189337         0.967490
 H         4.281632         3.753879        -3.011741
 H         1.140014         2.832418        -3.034600
 H         2.345156         3.063680        -4.290517
 H         3.332011         0.639500        -3.742461
 H         0.862078        -0.067333        -2.709869
 H         2.461217        -0.435581        -1.828807
 H         0.376030         1.557940        -1.201887
 H         2.188645         3.318673        -0.577966
 H         3.230413         2.018523        -0.278742
 H         2.400359         0.219122         0.648391
