19
Iteration:   814charge 0 multiplicity 1
 O         4.393779         2.963417        -2.505193
 C         3.058889         2.289265        -2.401143
 C         2.032032         2.667079        -3.507740
 C         2.514009         1.147907        -3.133414
 C         1.733122         0.291634        -2.151186
 C         1.476006         1.192438        -0.922828
 C         2.511846         2.258364        -0.913501
 C         1.403002         0.306330         0.262683
 O         0.402825         0.276923         1.004803
 H         4.210496         3.901010        -2.696507
 H         1.006242         2.908944        -3.334249
 H         2.347191         2.951922        -4.500901
 H         2.822412         0.743570        -4.081464
 H         0.827726        -0.111284        -2.566549
 H         2.354749        -0.556474        -1.854550
 H         0.553283         1.599052        -1.068258
 H         2.193312         3.202533        -0.585134
 H         3.341075         1.882780        -0.290750
 H         2.372187        -0.199976         0.527569
