19
Iteration:  2935charge 0 multiplicity 1
 O         4.342328         3.043395        -2.520290
 C         3.069469         2.392321        -2.436927
 C         2.024555         2.555893        -3.513166
 C         2.581870         1.130740        -3.135443
 C         1.904500         0.194867        -2.158710
 C         1.514915         1.136288        -0.899924
 C         2.546591         2.285341        -0.976352
 C         1.296181         0.364426         0.425493
 O         0.229502         0.345444         0.982149
 H         4.659347         3.423829        -3.368781
 H         0.911728         2.752072        -3.429740
 H         2.173051         2.611114        -4.598635
 H         3.283312         0.680432        -3.860003
 H         0.994370        -0.477424        -2.252547
 H         2.648315        -0.601902        -1.867027
 H         0.532065         1.489011        -1.137525
 H         2.154148         3.229955        -0.659207
 H         3.518929         2.058059        -0.445788
 H         2.228791        -0.090356         0.908555
