19
Iteration:  1954charge 0 multiplicity 1
 O         4.348555         2.824147        -2.481742
 C         3.054092         2.392134        -2.308291
 C         2.063344         2.585153        -3.406723
 C         2.573112         1.102947        -3.090524
 C         1.734006         0.198122        -2.235715
 C         1.292560         1.207676        -1.043845
 C         2.370474         2.320425        -0.911213
 C         1.425201         0.441124         0.154685
 O         0.598909         0.353297         1.002089
 H         4.704925         3.645925        -2.049032
 H         1.031131         2.735926        -3.143537
 H         2.342862         3.111357        -4.247541
 H         3.261643         0.645885        -3.869813
 H         0.838376        -0.154586        -2.842200
 H         2.157233        -0.761028        -1.853123
 H         0.333992         1.611605        -1.244044
 H         1.900868         3.337232        -0.684152
 H         3.196963         2.025565        -0.114589
 H         2.441303        -0.004254         0.155795
