19
Iteration:  1140charge 0 multiplicity 1
 O         4.336833         2.907465        -2.672985
 C         3.056284         2.397528        -2.330513
 C         1.986239         2.637916        -3.329259
 C         2.630676         1.196242        -3.180525
 C         1.841911         0.245012        -2.196743
 C         1.430103         1.243080        -1.047061
 C         2.609837         2.226283        -0.878140
 C         1.278492         0.452706         0.290486
 O         0.329047         0.159291         1.046490
 H         4.292179         3.887574        -2.566614
 H         0.971326         2.772276        -2.977616
 H         2.207344         3.241290        -4.143531
 H         3.158928         0.577095        -3.991888
 H         0.948040        -0.241133        -2.624393
 H         2.525416        -0.627064        -1.814320
 H         0.540729         1.660352        -1.434389
 H         2.357371         3.047433        -0.224466
 H         3.538322         1.700284        -0.428919
 H         2.317214         0.130968         0.620571
