19
Iteration:  3400charge 0 multiplicity 1
 O         4.358929         2.819917        -2.571792
 C         3.039545         2.368623        -2.365113
 C         1.965220         2.389888        -3.424257
 C         2.673693         1.071339        -3.093154
 C         1.836093         0.282595        -2.069726
 C         1.343338         1.450567        -0.959730
 C         2.494740         2.375100        -0.947118
 C         1.412842         0.548246         0.299017
 O         0.382761         0.108558         0.827377
 H         4.422962         3.812176        -2.701826
 H         0.924199         2.333855        -3.038762
 H         2.136847         3.079104        -4.312709
 H         3.468620         0.703414        -3.651687
 H         0.941861        -0.264088        -2.372941
 H         2.413253        -0.537822        -1.528593
 H         0.254328         1.782869        -1.180246
 H         2.184909         3.474774        -0.856808
 H         3.232059         2.229044        -0.148621
 H         2.485606         0.686971         0.747713
