19
Iteration:  2002charge 0 multiplicity 1
 O         4.282239         2.971415        -2.416512
 C         3.047448         2.386707        -2.483683
 C         2.210119         2.592376        -3.601172
 C         2.564340         1.124510        -3.216051
 C         1.644309         0.313163        -2.214508
 C         1.444442         1.191557        -0.990714
 C         2.384404         2.373593        -0.981095
 C         1.400176         0.350569         0.354835
 O         0.471932         0.217594         1.183673
 H         4.943048         2.293741        -2.184110
 H         1.182850         3.005385        -3.513703
 H         2.762011         2.802035        -4.616995
 H         3.269614         0.752548        -3.920151
 H         0.766220        -0.167058        -2.551585
 H         2.248910        -0.529879        -1.905814
 H         0.352137         1.586748        -1.095068
 H         1.934240         3.342078        -0.679588
 H         3.296183         2.106993        -0.315155
 H         2.348209        -0.194135         0.436898
