19
Iteration:  1942charge 0 multiplicity 1
 O         4.376530         2.848460        -2.398304
 C         3.032848         2.292566        -2.343267
 C         2.008381         2.547809        -3.415319
 C         2.592527         1.170421        -3.133310
 C         1.692312         0.266881        -2.212179
 C         1.335500         1.203110        -1.085676
 C         2.453920         2.319894        -1.020585
 C         1.418630         0.384185         0.194120
 O         0.562069         0.354406         1.044374
 H         4.057711         3.757600        -2.385911
 H         1.069446         3.001175        -3.184561
 H         2.565850         3.002242        -4.193205
 H         3.373494         0.773248        -3.873139
 H         0.752144        -0.182807        -2.687034
 H         2.402208        -0.520384        -1.835231
 H         0.354871         1.555184        -1.049232
 H         1.989348         3.303805        -0.718507
 H         3.238527         2.116057        -0.185844
 H         2.292263        -0.268717         0.305218
