19
Iteration:  2603
 O         4.321187         2.943084        -2.572129
 C         3.114913         2.353425        -2.385550
 C         2.044845         2.504110        -3.416370
 C         2.552167         1.121840        -3.124454
 C         1.903265         0.185114        -2.123197
 C         1.435374         1.239325        -0.975422
 C         2.492418         2.235354        -0.962944
 C         1.321300         0.505534         0.326725
 O         0.317882         0.322709         0.977211
 H         4.228181         3.864411        -2.822819
 H         1.044079         2.744398        -3.184671
 H         2.363590         2.895099        -4.395204
 H         3.061989         0.539390        -3.944578
 H         1.061105        -0.514852        -2.581357
 H         2.810346        -0.463853        -1.848726
 H         0.426021         1.658406        -1.194773
 H         2.222259         3.236092        -0.612405
 H         3.332739         1.887690        -0.336788
 H         2.365825         0.170342         0.708900
