19
Iteration:  2379
 O         4.276278         2.926091        -2.416490
 C         3.031402         2.268299        -2.276553
 C         2.070157         2.392832        -3.548908
 C         2.695919         1.049645        -3.059631
 C         1.722530         0.289202        -2.259564
 C         1.316785         1.273105        -1.066752
 C         2.352423         2.337382        -0.870911
 C         1.442204         0.475199         0.220438
 O         0.579876         0.396822         1.013784
 H         4.287346         3.173444        -3.385398
 H         1.017263         2.640195        -3.237168
 H         2.443858         3.041005        -4.360575
 H         3.557055         0.641465        -3.627212
 H         0.985898        -0.135070        -2.913680
 H         2.309044        -0.638695        -1.824636
 H         0.307236         1.681875        -1.268200
 H         1.857429         3.284683        -0.612731
 H         3.018017         2.030687        -0.078282
 H         2.461936         0.094351         0.435610
