19
Iteration:  1728charge 0 multiplicity 1
 O         4.347760         2.997510        -2.519319
 C         3.005513         2.400676        -2.389934
 C         2.018197         2.545734        -3.467258
 C         2.564424         1.140189        -3.111111
 C         1.658419         0.420589        -2.193495
 C         1.420400         1.268755        -0.863613
 C         2.699322         2.289130        -0.882284
 C         1.363460         0.386327         0.290996
 O         0.396474         0.109263         0.903363
 H         4.695201         2.412045        -3.180359
 H         0.990937         2.637180        -3.232985
 H         2.200272         2.910593        -4.484674
 H         3.040790         0.580897        -3.987575
 H         0.718290         0.161385        -2.650112
 H         2.180096        -0.511671        -1.819191
 H         0.427524         1.803739        -1.013267
 H         2.692889         3.213305        -0.296284
 H         3.550213         1.709654        -0.420079
 H         2.353867        -0.030436         0.675637
