19
Iteration:  3736
 O         4.298339         3.007951        -2.413594
 C         3.000091         2.390402        -2.294905
 C         1.996152         2.407436        -3.487684
 C         2.633001         1.073686        -3.021054
 C         1.850366         0.133066        -2.242172
 C         1.347724         1.128694        -1.124126
 C         2.459897         2.257423        -0.951121
 C         1.370207         0.449872         0.201115
 O         0.500212         0.539715         1.072280
 H         4.431753         3.393375        -3.337338
 H         0.977779         2.771796        -3.351230
 H         2.472327         2.870086        -4.412328
 H         3.639462         0.745209        -3.473953
 H         1.007001        -0.354020        -2.839601
 H         2.555477        -0.711955        -2.060857
 H         0.417021         1.660736        -1.347841
 H         1.844405         3.062495        -0.562258
 H         3.250227         2.005599        -0.160488
 H         2.253940        -0.276488         0.391025
