19
Iteration:  1432
 O         4.281790         2.966242        -2.615193
 C         3.050463         2.322493        -2.355028
 C         1.922347         2.627896        -3.421159
 C         2.618312         1.213622        -3.200406
 C         1.777537         0.291786        -2.181507
 C         1.380780         1.232796        -0.989048
 C         2.709219         2.110159        -0.890997
 C         1.300863         0.429060         0.184311
 O         0.431784         0.255075         1.079263
 H         4.575948         3.377614        -1.750259
 H         0.930462         2.721412        -3.093406
 H         2.137783         3.434945        -4.012178
 H         3.178364         0.601717        -3.904294
 H         0.991639        -0.100758        -2.865026
 H         2.496045        -0.536483        -1.777791
 H         0.446341         1.846081        -1.191191
 H         2.393161         2.996040        -0.313430
 H         3.612441         1.604980        -0.376514
 H         2.219663        -0.212758         0.430633
