19
Iteration:  4437charge 0 multiplicity 1
 O         4.324429         2.972090        -2.592601
 C         3.084684         2.322487        -2.321975
 C         2.078955         2.339015        -3.488666
 C         2.669696         1.049907        -3.068276
 C         1.783951         0.221398        -2.137110
 C         1.365214         1.273894        -1.004157
 C         2.426741         2.390376        -0.893549
 C         1.338479         0.440417         0.216975
 O         0.435590         0.343000         0.991710
 H         4.242087         3.905534        -2.427902
 H         1.060336         2.633558        -3.122551
 H         2.295104         2.764882        -4.399952
 H         3.413623         0.657841        -3.915162
 H         0.912806        -0.305871        -2.547143
 H         2.502273        -0.512567        -1.666579
 H         0.404711         1.889990        -1.300364
 H         1.993523         3.382088        -0.633338
 H         3.184197         2.155037        -0.142697
 H         2.376556        -0.058388         0.461635
