19
Iteration:  2628
 O         4.332062         2.820385        -2.593190
 C         3.004382         2.462093        -2.433492
 C         2.016566         2.550967        -3.585747
 C         2.630405         1.231125        -3.158055
 C         1.915802         0.236682        -2.151706
 C         1.496862         1.096060        -0.884225
 C         2.575677         2.263968        -0.973798
 C         1.265368         0.535574         0.513794
 O         0.241856         0.218257         1.027311
 H         4.435014         3.708790        -2.979446
 H         0.917623         2.669413        -3.492785
 H         2.484628         3.095671        -4.416738
 H         3.427896         0.770617        -3.669107
 H         1.033417        -0.213801        -2.727913
 H         2.662889        -0.540364        -2.154543
 H         0.527710         1.526248        -1.208804
 H         2.130399         3.168862        -0.567806
 H         3.583406         2.081500        -0.405726
 H         2.261385         0.594110         1.092710
