19
Iteration:   958charge 0 multiplicity 1
 O         4.322847         2.730169        -2.612108
 C         2.964533         2.417211        -2.312688
 C         2.055031         2.598823        -3.465905
 C         2.626131         1.218189        -3.085545
 C         1.736750         0.395736        -2.165843
 C         1.343217         1.339637        -0.976439
 C         2.588687         2.344928        -0.871633
 C         1.403222         0.442535         0.318228
 O         0.448211         0.028862         0.913882
 H         4.269237         3.650982        -3.021272
 H         0.955655         2.714199        -3.328500
 H         2.495130         3.029987        -4.305222
 H         3.272233         0.599238        -3.764925
 H         0.744177         0.020232        -2.560983
 H         2.333830        -0.345064        -1.654390
 H         0.334590         1.721099        -0.988753
 H         2.389481         3.320874        -0.469166
 H         3.340409         2.016840        -0.210478
 H         2.434494         0.035871         0.522985
