19
Iteration:  1533charge 0 multiplicity 1
 O         4.365563         2.875901        -2.413919
 C         2.993800         2.485739        -2.360272
 C         1.905682         2.594740        -3.396012
 C         2.489293         1.180195        -3.099031
 C         1.742542         0.340977        -2.167827
 C         1.392881         1.279728        -0.981334
 C         2.657701         2.169017        -0.956833
 C         1.413059         0.460678         0.244138
 O         0.474174         0.170263         0.896172
 H         4.739789         2.868128        -3.287061
 H         0.909917         2.926765        -3.072959
 H         2.213370         3.111098        -4.343247
 H         2.985573         0.670014        -3.942101
 H         0.771258        -0.155123        -2.537452
 H         2.378698        -0.558007        -1.957712
 H         0.415352         1.651412        -1.141746
 H         2.643471         3.064106        -0.351625
 H         3.501764         1.533463        -0.689807
 H         2.380975         0.025808         0.553153
