19
Iteration:  3611charge 0 multiplicity 1
 O         4.404129         2.951329        -2.587335
 C         3.075935         2.392670        -2.382475
 C         1.940416         2.413785        -3.350588
 C         2.624780         1.057967        -3.051612
 C         1.896712         0.197710        -2.142569
 C         1.367985         1.231669        -1.082849
 C         2.442798         2.352590        -0.929020
 C         1.377238         0.481918         0.278521
 O         0.382255         0.359400         0.922375
 H         4.530128         3.858003        -2.243387
 H         0.922100         2.419349        -3.056077
 H         2.006314         2.586309        -4.411989
 H         3.263743         0.569636        -3.742643
 H         1.102203        -0.321757        -2.683922
 H         2.558684        -0.568008        -1.605580
 H         0.200155         1.551406        -1.143678
 H         2.148855         3.365186        -0.515581
 H         3.202678         2.055412        -0.283181
 H         2.292291        -0.016334         0.578039
