19
Iteration:  3876
 O         4.357287         2.967250        -2.523002
 C         3.034736         2.421764        -2.472858
 C         2.125596         2.440039        -3.722751
 C         2.624041         1.139890        -3.162441
 C         1.861342         0.254811        -2.116898
 C         1.415737         1.171088        -0.876659
 C         2.364695         2.281134        -0.972758
 C         1.373505         0.408570         0.440211
 O         0.336446         0.330528         1.047505
 H         4.200410         3.932966        -2.285594
 H         1.061190         2.822867        -3.761615
 H         2.703937         2.588294        -4.620575
 H         3.446435         0.623046        -3.689241
 H         0.938186        -0.174108        -2.465670
 H         2.471015        -0.612484        -1.795747
 H         0.251291         1.505384        -0.995166
 H         2.043544         3.108820        -0.239959
 H         3.383878         2.051904        -0.422553
 H         2.318699        -0.010691         0.824677
