19
Iteration:  1886
 O         4.230990         3.007776        -2.520703
 C         3.019567         2.446308        -2.351256
 C         2.121857         2.550494        -3.517858
 C         2.624405         1.214750        -3.156418
 C         1.763253         0.359742        -2.308980
 C         1.366766         1.090156        -0.967392
 C         2.565680         2.154524        -0.900689
 C         1.337636         0.325875         0.295693
 O         0.418413         0.372963         1.140126
 H         4.860360         2.562331        -3.099637
 H         1.093943         2.860145        -3.339728
 H         2.626883         2.988329        -4.438681
 H         3.316935         0.682192        -3.835624
 H         0.806221        -0.046366        -2.801424
 H         2.310865        -0.612786        -2.082130
 H         0.398339         1.529604        -1.013826
 H         2.273584         2.968245        -0.194792
 H         3.467895         1.625550        -0.319087
 H         2.373031        -0.330703         0.437836
