19
Iteration:  2249charge 0 multiplicity 1
 O         4.290125         2.982209        -2.614327
 C         3.075009         2.316165        -2.393084
 C         2.019398         2.435635        -3.389865
 C         2.637371         1.095077        -3.105196
 C         1.897873         0.242220        -2.119438
 C         1.435545         1.229290        -0.917131
 C         2.585609         2.333399        -0.991197
 C         1.315429         0.440378         0.330811
 O         0.267600         0.272969         0.952300
 H         4.374124         3.733551        -3.221479
 H         1.020547         2.864657        -3.079576
 H         2.420439         2.974935        -4.226468
 H         3.231651         0.595552        -3.888255
 H         1.002688        -0.310579        -2.608781
 H         2.556445        -0.477690        -1.660626
 H         0.508422         1.777112        -1.094873
 H         2.191202         3.395313        -0.738603
 H         3.421521         2.207853        -0.183741
 H         2.265426         0.050998         0.648274
