19
Iteration:  1517charge 0 multiplicity 1
 O         4.372082         2.923712        -2.497132
 C         3.093434         2.341773        -2.381228
 C         1.972485         2.718773        -3.394974
 C         2.469966         1.257392        -3.223142
 C         1.747965         0.249317        -2.231064
 C         1.434342         1.216809        -0.969914
 C         2.601576         2.178609        -0.940589
 C         1.351887         0.420326         0.356927
 O         0.402858         0.162048         1.008519
 H         4.516839         3.033465        -3.427724
 H         0.964325         2.935551        -3.059387
 H         2.178170         2.997284        -4.422846
 H         3.161602         1.022488        -4.031751
 H         0.951209        -0.233678        -2.759329
 H         2.505313        -0.452496        -1.759287
 H         0.501173         1.880087        -1.094602
 H         2.402503         3.012011        -0.213622
 H         3.395423         1.703331        -0.239164
 H         2.478217         0.137248         0.570844
