19
Iteration:   894charge 0 multiplicity 1
 O         4.286178         2.834819        -2.447852
 C         3.016140         2.340450        -2.465161
 C         2.062155         2.659227        -3.608479
 C         2.495400         1.123199        -3.153974
 C         1.711070         0.364989        -2.082243
 C         1.440321         1.320709        -0.857311
 C         2.591203         2.292023        -0.980324
 C         1.449365         0.466796         0.318642
 O         0.446035         0.064600         0.944669
 H         4.381203         3.545691        -1.789054
 H         1.030855         3.051466        -3.323636
 H         2.435951         2.962026        -4.552244
 H         3.145452         0.685069        -3.952757
 H         0.712484         0.008722        -2.571246
 H         2.290270        -0.509350        -1.738882
 H         0.444692         1.790021        -1.129437
 H         2.333915         3.382572        -0.701833
 H         3.499702         2.081811        -0.343841
 H         2.338373        -0.202101         0.431946
