19
Iteration:  2509charge 0 multiplicity 1
 O         4.328030         3.005413        -2.396689
 C         3.063975         2.337317        -2.411688
 C         2.041119         2.514323        -3.534976
 C         2.583170         1.063832        -3.152393
 C         1.841287         0.174015        -2.209619
 C         1.424954         1.141175        -1.075426
 C         2.496082         2.208086        -1.004782
 C         1.297380         0.415754         0.321251
 O         0.423796         0.473579         1.145090
 H         4.142217         3.856592        -2.838264
 H         0.993706         2.796791        -3.465799
 H         2.523583         2.989393        -4.484578
 H         3.082505         0.637294        -4.034165
 H         1.020119        -0.356891        -2.561981
 H         2.624541        -0.517481        -1.827663
 H         0.426478         1.560756        -1.384828
 H         1.998115         3.068961        -0.568743
 H         3.327635         1.961350        -0.298582
 H         2.373439         0.094251         0.645504
