19
Iteration:  2815charge 0 multiplicity 1
 O         4.428521         2.706611        -2.601522
 C         3.004959         2.394714        -2.415802
 C         2.012185         2.471480        -3.545593
 C         2.566326         1.105114        -2.971604
 C         1.782580         0.337681        -1.998201
 C         1.339128         1.393980        -0.916466
 C         2.458197         2.534526        -0.962006
 C         1.427510         0.581924         0.441687
 O         0.421522        -0.015199         0.757776
 H         4.647978         3.611313        -2.385973
 H         0.938968         2.803759        -3.501565
 H         2.460409         2.718906        -4.582196
 H         3.383547         0.634371        -3.636430
 H         0.905340        -0.247055        -2.478604
 H         2.500372        -0.499345        -1.739008
 H         0.345531         1.725714        -1.188679
 H         1.959709         3.443841        -0.909532
 H         3.236487         2.511872        -0.216873
 H         2.446758         0.391143         0.882042
