19
Iteration:   663charge 0 multiplicity 1
 O         4.313322         3.081184        -2.471126
 C         3.106901         2.386056        -2.367704
 C         2.014367         2.635417        -3.359076
 C         2.531493         1.150872        -3.197268
 C         1.774837         0.172111        -2.257682
 C         1.383714         1.054805        -0.997579
 C         2.594589         2.133607        -0.988738
 C         1.399322         0.374488         0.320221
 O         0.369711         0.378208         1.041132
 H         4.566817         3.189094        -3.377940
 H         1.140045         2.873002        -2.914120
 H         2.230516         3.224598        -4.189128
 H         2.984646         0.742992        -4.078559
 H         0.824147        -0.310955        -2.678256
 H         2.530891        -0.641232        -1.993565
 H         0.406017         1.537274        -1.186239
 H         2.322614         3.111603        -0.545525
 H         3.542082         2.022400        -0.334460
 H         2.374268         0.023537         0.691176
