19
Iteration:   401
 O         4.399898         3.056720        -2.710378
 C         3.097392         2.375210        -2.416232
 C         1.992038         2.561936        -3.402111
 C         2.529596         1.135036        -3.084550
 C         1.909930         0.268789        -2.057547
 C         1.437595         1.263880        -0.888610
 C         2.613135         2.329947        -0.922229
 C         1.261339         0.368048         0.372277
 O         0.250744         0.069934         0.923685
 H         4.517286         3.010652        -3.689705
 H         1.083154         2.934354        -3.087788
 H         2.238423         2.994836        -4.327197
 H         3.082614         0.685728        -3.949648
 H         0.999391        -0.305085        -2.399317
 H         2.605365        -0.410179        -1.648218
 H         0.444123         1.753610        -1.046080
 H         2.394467         3.405020        -0.691683
 H         3.432977         2.087931        -0.278321
 H         2.211783         0.184441         0.825138
