19
Iteration:  4833charge 0 multiplicity 1
 O         4.312511         2.906558        -2.424575
 C         2.964790         2.377501        -2.332445
 C         2.104972         2.460762        -3.561977
 C         2.686338         1.064913        -3.137467
 C         1.940513         0.177200        -2.190028
 C         1.382693         1.084188        -1.101507
 C         2.270004         2.310286        -1.046020
 C         1.321583         0.455413         0.272986
 O         0.496968         0.523281         1.186088
 H         4.376847         3.871317        -2.396777
 H         0.999900         2.691986        -3.463177
 H         2.423643         2.847244        -4.580701
 H         3.437893         0.655088        -3.895493
 H         1.153685        -0.231492        -2.777920
 H         2.704378        -0.478511        -1.727153
 H         0.368050         1.429499        -1.227820
 H         1.723428         3.199655        -0.778089
 H         3.055782         2.154304        -0.246747
 H         2.272004        -0.170642         0.410136
