19
Iteration:  4709
 O         4.282862         2.955370        -2.572200
 C         3.010609         2.404629        -2.499091
 C         1.981513         2.454629        -3.589628
 C         2.714186         1.151566        -3.167520
 C         2.000554         0.255834        -2.078672
 C         1.449992         1.117808        -0.969030
 C         2.530619         2.218248        -0.957461
 C         1.269716         0.362293         0.427472
 O         0.255284         0.467495         1.064963
 H         4.156165         3.891921        -2.421307
 H         1.027120         2.782662        -3.619675
 H         2.402559         2.817372        -4.504937
 H         3.443033         0.623700        -3.726067
 H         1.214818        -0.410060        -2.502979
 H         2.789100        -0.580704        -1.725992
 H         0.459613         1.536139        -1.156498
 H         2.299866         3.106632        -0.260053
 H         3.467738         1.925841        -0.478475
 H         2.151029        -0.028349         0.849893
