19
Iteration:  3051
 O         4.183734         2.996686        -2.436579
 C         2.934175         2.412032        -2.394540
 C         2.165179         2.493576        -3.708120
 C         2.800451         1.175176        -3.054674
 C         1.848053         0.186644        -2.340165
 C         1.386050         0.996072        -1.058991
 C         2.440349         2.162439        -0.948706
 C         1.307915         0.337834         0.392259
 O         0.465463         0.602887         1.216642
 H         4.087436         3.853995        -2.829304
 H         1.132043         2.896412        -3.473051
 H         2.788885         2.995067        -4.481156
 H         3.646073         0.766379        -3.699054
 H         0.912693        -0.108812        -2.822108
 H         2.372899        -0.779604        -2.155346
 H         0.276263         1.363757        -1.099558
 H         1.998113         3.005091        -0.313036
 H         3.243295         1.736179        -0.472725
 H         2.084493        -0.470369         0.563493
