19
Iteration:  1399charge 0 multiplicity 1
 O         4.311168         3.023025        -2.605961
 C         3.054407         2.407599        -2.397974
 C         2.035151         2.672221        -3.463071
 C         2.539159         1.230848        -3.139488
 C         1.705638         0.191648        -2.320769
 C         1.449849         1.077100        -0.943447
 C         2.638845         2.170174        -0.935102
 C         1.370126         0.316357         0.377436
 O         0.377567         0.330497         1.061780
 H         4.580588         3.312056        -1.690734
 H         1.187364         3.063144        -3.018982
 H         2.467009         3.147655        -4.300448
 H         3.026253         0.605143        -3.899511
 H         0.802073        -0.005854        -2.932629
 H         2.191371        -0.829958        -2.111789
 H         0.408743         1.501595        -0.819967
 H         2.355302         3.095906        -0.387428
 H         3.644232         1.974612        -0.544410
 H         2.312128        -0.301276         0.609015
