19
Iteration:  4748
 O         4.307768         3.065476        -2.564712
 C         3.028436         2.314253        -2.310566
 C         1.981370         2.343137        -3.460421
 C         2.712053         1.044308        -3.083448
 C         1.910049         0.205885        -2.172101
 C         1.416914         1.069251        -1.085310
 C         2.474899         2.266224        -0.846323
 C         1.301141         0.450693         0.237671
 O         0.408953         0.552862         1.019224
 H         4.184035         4.031354        -2.714949
 H         0.924902         2.468913        -3.032488
 H         2.410728         2.799375        -4.449301
 H         3.374263         0.724830        -4.041450
 H         1.059768        -0.162415        -2.807152
 H         2.224443        -0.648244        -1.659386
 H         0.457153         1.534976        -1.391085
 H         1.983459         3.196815        -0.618406
 H         3.301797         1.905042        -0.123829
 H         2.232740        -0.056010         0.547460
