19
Iteration:  2258
 O         4.373443         2.966717        -2.612216
 C         3.194180         2.370509        -2.369689
 C         1.963200         2.434874        -3.383636
 C         2.576553         1.106481        -3.098296
 C         1.925367         0.175074        -2.115077
 C         1.379469         1.229088        -1.023831
 C         2.554094         2.348704        -0.979084
 C         1.291488         0.493548         0.304561
 O         0.308882         0.253178         0.991981
 H         4.157761         3.902985        -2.840633
 H         0.966075         2.575426        -2.949311
 H         2.139757         2.911019        -4.368438
 H         3.209241         0.609425        -3.834593
 H         1.001662        -0.135102        -2.489132
 H         2.394913        -0.701059        -1.814836
 H         0.416725         1.740385        -1.121090
 H         2.143495         3.380241        -0.952849
 H         3.321949         2.217817        -0.140716
 H         2.238799         0.082776         0.746803
