19
Iteration:  3368charge 0 multiplicity 1
 O         4.326497         2.904910        -2.674985
 C         3.037214         2.493560        -2.437329
 C         2.102044         2.424267        -3.591251
 C         2.569140         1.124365        -3.000901
 C         1.822782         0.228342        -2.016483
 C         1.450470         1.323011        -0.832740
 C         2.571593         2.426364        -0.978847
 C         1.330270         0.376579         0.392857
 O         0.267179         0.102715         0.916966
 H         4.572428         3.844433        -2.747377
 H         1.090832         2.788520        -3.803223
 H         2.751577         2.625006        -4.496341
 H         3.352439         0.802208        -3.592138
 H         0.821217        -0.034306        -2.287058
 H         2.535733        -0.597320        -1.871373
 H         0.504579         1.915254        -1.109308
 H         2.074230         3.449467        -0.662499
 H         3.435527         2.267402        -0.277710
 H         2.268960         0.054178         0.881837
