19
Iteration:  3560charge 0 multiplicity 1
 O         4.338845         2.904103        -2.554870
 C         3.061702         2.502254        -2.487272
 C         2.085889         2.448191        -3.708723
 C         2.615201         1.197466        -3.109329
 C         1.836658         0.233238        -2.073541
 C         1.412637         1.189711        -0.898971
 C         2.494917         2.320643        -0.978815
 C         1.347069         0.493054         0.491604
 O         0.271451         0.149687         1.023784
 H         4.535268         3.782908        -3.023208
 H         0.985400         2.817622        -3.610578
 H         2.693484         2.980859        -4.436409
 H         3.401609         0.654003        -3.577432
 H         0.984827        -0.134386        -2.686386
 H         2.533347        -0.503584        -1.739432
 H         0.464581         1.549612        -1.066281
 H         2.037270         3.166066        -0.383275
 H         3.571383         1.970489        -0.549561
 H         2.287367         0.240611         1.084219
