19
Iteration:  1626
 O         4.365524         2.697516        -2.581914
 C         3.052114         2.394487        -2.354408
 C         1.982020         2.629093        -3.497874
 C         2.478596         1.252695        -3.139790
 C         1.671008         0.425558        -2.115253
 C         1.404990         1.334399        -0.904672
 C         2.612819         2.329518        -0.897418
 C         1.439385         0.485662         0.305241
 O         0.468436        -0.022358         0.850618
 H         4.452594         3.490326        -1.973110
 H         0.891264         2.771311        -3.270886
 H         2.362755         3.068850        -4.397078
 H         3.123765         0.639025        -3.738323
 H         0.780853        -0.120063        -2.452689
 H         2.269582        -0.416052        -1.840930
 H         0.460507         1.975752        -0.975600
 H         2.135606         3.293055        -0.550113
 H         3.463968         1.959717        -0.272807
 H         2.543127         0.309390         0.744229
