19
Iteration:   391charge 0 multiplicity 1
 O         4.354147         2.944093        -2.741562
 C         3.129785         2.437206        -2.394531
 C         2.021177         2.558277        -3.394828
 C         2.548756         1.252526        -3.111301
 C         1.922781         0.268629        -2.110913
 C         1.521320         1.144027        -0.853868
 C         2.600072         2.382929        -0.920971
 C         1.273331         0.419468         0.391982
 O         0.194564         0.088686         0.948179
 H         4.390838         3.183276        -3.675532
 H         1.132228         2.722197        -2.944444
 H         2.151010         3.011000        -4.312730
 H         3.056941         0.719443        -3.957324
 H         1.086265        -0.412182        -2.506630
 H         2.708052        -0.423532        -1.779920
 H         0.536846         1.645837        -1.124870
 H         1.883963         3.180794        -0.634109
 H         3.417996         2.233690        -0.224127
 H         2.163846         0.061714         0.918558
