19
Iteration:  1179
 O         4.370018         2.894566        -2.518208
 C         2.973378         2.485648        -2.405389
 C         1.996882         2.595057        -3.465148
 C         2.443044         1.095153        -3.247030
 C         1.841351         0.285631        -2.169236
 C         1.558006         1.170093        -0.926482
 C         2.559924         2.337593        -0.880628
 C         1.400656         0.333728         0.258920
 O         0.353039         0.253528         0.962383
 H         4.664283         3.477100        -1.763368
 H         0.891380         2.812603        -3.185880
 H         2.332476         3.093831        -4.408980
 H         3.117401         0.663086        -3.987928
 H         0.784365        -0.168056        -2.400388
 H         2.399289        -0.609470        -1.932339
 H         0.527193         1.733301        -1.018798
 H         2.186453         3.304608        -0.357695
 H         3.454822         1.930007        -0.405225
 H         2.310142        -0.236734         0.698430
