19
Iteration:  4384
 O         4.351275         2.984644        -2.545788
 C         2.978420         2.359082        -2.379681
 C         2.029623         2.503557        -3.605201
 C         2.624981         1.150064        -3.165996
 C         1.965547         0.220412        -2.221479
 C         1.439384         1.031651        -0.981796
 C         2.475480         2.194058        -0.907698
 C         1.293855         0.442232         0.429329
 O         0.295999         0.454028         1.119171
 H         4.400820         3.928238        -2.671664
 H         0.932066         2.739254        -3.773300
 H         2.527397         3.004225        -4.395889
 H         3.403782         0.629723        -3.915357
 H         1.115303        -0.270622        -2.732925
 H         2.817742        -0.475112        -1.897193
 H         0.528585         1.548267        -1.367825
 H         2.076528         3.106929        -0.557374
 H         3.333959         1.959842        -0.261516
 H         2.328853         0.005546         0.730452
