19
Iteration:   215charge 0 multiplicity 1
 O         4.259640         2.860190        -2.191604
 C         2.996836         2.261888        -2.369362
 C         2.086990         2.616360        -3.520078
 C         2.608523         1.212777        -3.200778
 C         1.839836         0.203241        -2.246164
 C         1.228334         1.020890        -1.146578
 C         2.247684         2.251103        -1.005469
 C         1.454994         0.505792         0.206265
 O         0.701265         0.475846         1.149082
 H         4.666072         3.131683        -3.046866
 H         1.028139         2.917764        -3.511132
 H         2.553760         2.937142        -4.488879
 H         3.136353         0.688400        -3.956446
 H         1.214980        -0.516961        -2.911971
 H         2.554993        -0.475369        -1.678767
 H         0.221996         1.516860        -1.295562
 H         1.669372         3.194972        -0.750860
 H         2.986714         2.377626        -0.166304
 H         2.554506        -0.004248         0.225289
