19
Iteration:  2492charge 0 multiplicity 1
 O         4.264075         2.900063        -2.334410
 C         3.038993         2.313523        -2.401213
 C         1.977996         2.450629        -3.422262
 C         2.685083         1.103631        -3.203494
 C         1.864152         0.202761        -2.185683
 C         1.329483         1.160046        -1.037984
 C         2.468960         2.296512        -1.006720
 C         1.370257         0.505490         0.246157
 O         0.500500         0.486466         1.031694
 H         4.365705         3.612377        -2.996031
 H         1.022386         2.598243        -2.879128
 H         2.062442         2.805139        -4.430128
 H         3.427118         0.680017        -3.851046
 H         1.068494        -0.350776        -2.835522
 H         2.480874        -0.608892        -1.709969
 H         0.372873         1.623650        -1.217626
 H         2.190519         3.365033        -0.765448
 H         3.251098         1.932643        -0.297223
 H         2.223872        -0.220878         0.301940
