19
Iteration:   553
 O         4.372872         2.758489        -2.448722
 C         3.047933         2.360851        -2.391984
 C         1.926071         2.552738        -3.509643
 C         2.545306         1.155995        -3.106111
 C         1.709487         0.341977        -2.183833
 C         1.474300         1.256784        -0.925199
 C         2.440887         2.453594        -1.026078
 C         1.523750         0.513149         0.399174
 O         0.485628         0.092811         0.837065
 H         4.582977         3.402067        -1.703225
 H         0.992200         2.734125        -3.210797
 H         2.129151         2.900759        -4.477464
 H         2.964595         0.561845        -3.957589
 H         0.720559        -0.071735        -2.544376
 H         2.202476        -0.505955        -1.670905
 H         0.452198         1.586409        -1.101527
 H         1.898163         3.383258        -0.868771
 H         3.294668         2.333648        -0.338090
 H         2.538131         0.428640         0.908627
