19
Iteration:  4276
 O         4.354096         3.077825        -2.560342
 C         3.079938         2.355557        -2.393093
 C         2.069560         2.440841        -3.563226
 C         2.669962         1.113868        -3.171931
 C         1.891950         0.152403        -2.203370
 C         1.391596         1.087790        -0.977279
 C         2.447695         2.262245        -0.967029
 C         1.251830         0.374032         0.348407
 O         0.343259         0.465384         1.173975
 H         4.197453         4.026566        -2.646073
 H         1.000959         2.739645        -3.388047
 H         2.504711         2.915881        -4.467137
 H         3.399910         0.685284        -3.913428
 H         1.049229        -0.271587        -2.761666
 H         2.534730        -0.600605        -1.739727
 H         0.440289         1.536145        -1.258073
 H         2.103437         3.188803        -0.533718
 H         3.299081         1.943553        -0.259117
 H         2.196976        -0.284501         0.617508
