19
Iteration:   216charge 0 multiplicity 1
 O         4.258841         2.867062        -2.189610
 C         3.004148         2.251205        -2.375414
 C         2.081251         2.619574        -3.523463
 C         2.606186         1.219532        -3.197720
 C         1.841067         0.205497        -2.229462
 C         1.221219         1.017519        -1.154023
 C         2.255306         2.253957        -1.013168
 C         1.452410         0.503139         0.197903
 O         0.702663         0.472594         1.153032
 H         4.672327         3.111524        -3.067647
 H         1.070779         2.885075        -3.453845
 H         2.551883         2.937942        -4.449868
 H         3.136280         0.676447        -3.958734
 H         1.227191        -0.497506        -2.915859
 H         2.556213        -0.476696        -1.650050
 H         0.200327         1.523896        -1.312272
 H         1.675468         3.181758        -0.756364
 H         3.011338         2.380296        -0.176904
 H         2.494769         0.007082         0.222801
