19
Iteration:   784charge 0 multiplicity 1
 O         4.273756         2.885518        -2.536477
 C         2.891444         2.502554        -2.296656
 C         1.987172         2.499224        -3.551643
 C         2.611435         1.252111        -3.122119
 C         1.750753         0.344855        -2.282580
 C         1.501940         1.197188        -0.995842
 C         2.681866         2.089284        -0.866454
 C         1.339814         0.416936         0.293228
 O         0.401164         0.301133         1.057269
 H         4.443261         3.820049        -2.375832
 H         1.005528         2.358598        -3.486949
 H         2.299360         3.083379        -4.408397
 H         3.430642         0.807162        -3.725549
 H         0.872056        -0.202503        -2.782689
 H         2.453430        -0.489506        -1.977971
 H         0.633893         1.855910        -1.163390
 H         2.533009         2.886635        -0.087652
 H         3.528877         1.365954        -0.599757
 H         2.336912        -0.088469         0.475797
