19
Iteration:  2753charge 0 multiplicity 1
 O         4.403374         2.865496        -2.532031
 C         3.069796         2.441099        -2.494773
 C         2.170802         2.501513        -3.632866
 C         2.505268         1.041549        -3.118305
 C         1.684935         0.364525        -2.108899
 C         1.425220         1.245166        -0.893332
 C         2.533752         2.376584        -1.005129
 C         1.339754         0.662807         0.553656
 O         0.386681        -0.058736         0.925452
 H         4.288825         3.760985        -2.845462
 H         1.241691         3.016001        -3.354858
 H         2.681721         2.797093        -4.616508
 H         3.209173         0.347037        -3.697926
 H         0.816426         0.044557        -2.582699
 H         2.140389        -0.566224        -1.755960
 H         0.372576         1.573356        -1.043353
 H         1.928575         3.345336        -0.826880
 H         3.265918         2.284713        -0.123386
 H         2.179925         0.879198         1.277696
