19
Iteration:   799charge 0 multiplicity 1
 O         4.285604         2.895737        -2.466338
 C         2.981735         2.522347        -2.380599
 C         2.016470         2.550257        -3.516598
 C         2.514913         1.167831        -3.134685
 C         1.744878         0.267767        -2.165304
 C         1.423988         1.184248        -0.957189
 C         2.654054         2.169314        -0.969092
 C         1.428257         0.361947         0.272384
 O         0.413340         0.305921         0.979303
 H         4.273650         3.897728        -2.497054
 H         0.982300         3.084745        -3.352945
 H         2.588540         2.913441        -4.395279
 H         3.359885         0.725890        -3.656248
 H         0.799529        -0.090718        -2.568452
 H         2.373814        -0.582095        -1.857472
 H         0.372986         1.695100        -0.988957
 H         2.534700         3.020870        -0.242611
 H         3.614612         1.784666        -0.637359
 H         2.257154        -0.355914         0.534018
