19
Iteration:  4910charge 0 multiplicity 1
 O         4.286416         2.976462        -2.487843
 C         3.005087         2.426065        -2.430584
 C         2.213513         2.399142        -3.756305
 C         2.717864         1.047112        -3.128617
 C         1.806849         0.314081        -2.146111
 C         1.344789         1.176061        -0.983300
 C         2.307956         2.300042        -0.985158
 C         1.314969         0.417177         0.362395
 O         0.444491         0.358475         1.235257
 H         4.408859         3.974582        -2.440087
 H         1.104254         2.636958        -3.806771
 H         2.833732         2.734787        -4.659653
 H         3.645801         0.699140        -3.705023
 H         1.107651        -0.241697        -2.665014
 H         2.466491        -0.565433        -1.817345
 H         0.380308         1.571715        -1.197688
 H         1.913562         3.189623        -0.584373
 H         3.127848         1.912293        -0.362858
 H         2.296041        -0.217581         0.435946
