19
Iteration:   289charge 0 multiplicity 1
 O         4.182969         3.190734        -2.584909
 C         3.002356         2.447551        -2.284133
 C         2.120215         2.465261        -3.571176
 C         2.704600         1.119128        -3.110312
 C         1.737885         0.219206        -2.313381
 C         1.430373         1.031433        -0.971659
 C         2.589008         2.209856        -0.821487
 C         1.354438         0.319857         0.346915
 O         0.404083         0.452481         1.076894
 H         4.830406         2.524511        -2.889170
 H         0.916881         2.510074        -3.509334
 H         2.800296         3.022879        -4.383403
 H         3.278991         0.617724        -3.880885
 H         0.767612         0.148346        -2.805473
 H         2.116036        -0.766530        -2.162203
 H         0.449244         1.439210        -1.131651
 H         2.232892         3.176847        -0.338190
 H         3.372961         1.916523        -0.138732
 H         2.087662        -0.602380         0.410044
