19
Iteration:  3045
 O         4.151187         3.005856        -2.414788
 C         2.962894         2.404578        -2.374238
 C         2.178994         2.510998        -3.653171
 C         2.770155         1.148467        -3.128738
 C         1.840965         0.196286        -2.335351
 C         1.387234         0.973020        -1.091448
 C         2.438206         2.148737        -0.944627
 C         1.351788         0.357790         0.441816
 O         0.446642         0.608084         1.189527
 H         4.027109         3.808679        -2.928612
 H         1.108003         2.738022        -3.689488
 H         2.738376         2.941353        -4.459883
 H         3.588338         0.874859        -3.695338
 H         0.953002        -0.022452        -2.974419
 H         2.223938        -0.742163        -1.895096
 H         0.474456         1.449026        -1.288886
 H         2.102422         2.933384        -0.308839
 H         3.481630         1.793473        -0.424574
 H         2.087594        -0.459359         0.643920
