19
Iteration:  3891
 O         4.251507         2.900672        -2.492925
 C         2.905562         2.441645        -2.381145
 C         2.140000         2.455071        -3.664297
 C         2.632680         1.135512        -3.097693
 C         1.857911         0.201462        -2.190651
 C         1.470989         1.164096        -0.954498
 C         2.560301         2.367081        -0.969498
 C         1.358552         0.475272         0.426959
 O         0.301741         0.291155         1.058203
 H         4.296998         3.797150        -2.799936
 H         1.110572         2.678480        -3.756193
 H         2.764048         2.816950        -4.478103
 H         3.335718         0.571761        -3.702811
 H         1.014328        -0.353745        -2.713678
 H         2.616943        -0.568446        -1.913931
 H         0.442523         1.565882        -1.146304
 H         2.230860         3.316427        -0.716083
 H         3.370246         2.085887        -0.388536
 H         2.360791         0.143650         0.881408
