19
Iteration:    93charge 0 multiplicity 1
 O         4.193971         3.038190        -2.329357
 C         2.919077         2.357683        -2.328184
 C         2.177579         2.440557        -3.634338
 C         2.712354         1.101420        -3.116192
 C         1.679300         0.198218        -2.365634
 C         1.371963         1.119212        -1.025498
 C         2.304018         2.360475        -1.014011
 C         1.474874         0.423973         0.316360
 O         0.606265         0.390898         1.166385
 H         4.958512         2.453154        -2.594493
 H         1.140697         2.875731        -3.899060
 H         2.913063         2.777422        -4.360487
 H         3.609922         0.692195        -3.604170
 H         0.708797         0.096044        -2.951191
 H         2.001303        -0.873656        -2.173492
 H         0.366122         1.527432        -1.118115
 H         1.714844         3.267263        -0.704453
 H         3.115301         2.281573        -0.225539
 H         2.511822         0.033903         0.595077
