19
Iteration:    37
 O         4.264271         2.753058        -2.334608
 C         2.996977         2.466339        -2.438924
 C         2.019209         2.483410        -3.507284
 C         2.564461         1.155368        -3.141568
 C         2.037248         0.276548        -2.116068
 C         1.391243         1.165248        -1.107506
 C         2.317621         2.397028        -1.003067
 C         1.357395         0.446267         0.243143
 O         0.519740         0.349225         1.107873
 H         4.615347         3.058911        -3.170040
 H         1.021909         2.854468        -3.148137
 H         2.113202         2.754399        -4.600467
 H         3.236216         0.650146        -3.917594
 H         1.223588        -0.361229        -2.547197
 H         2.909517        -0.326733        -1.686426
 H         0.490771         1.470300        -1.529931
 H         1.580489         3.176851        -0.734541
 H         3.188601         2.275193        -0.280338
 H         2.382198         0.134820         0.444286
