19
Iteration:  1121charge 0 multiplicity 1
 O         4.328199         2.902865        -2.634224
 C         3.051335         2.401469        -2.310397
 C         1.929018         2.561911        -3.400620
 C         2.573980         1.243139        -3.120942
 C         1.838989         0.319501        -2.277103
 C         1.458654         1.167969        -0.924989
 C         2.649300         2.188862        -0.858352
 C         1.371581         0.415816         0.356357
 O         0.287248         0.216386         0.931805
 H         4.328423         3.665894        -3.198940
 H         0.900800         2.734122        -3.155930
 H         2.250742         2.979034        -4.361029
 H         3.414771         1.013860        -3.768031
 H         1.002515        -0.058948        -2.771144
 H         2.557030        -0.529798        -2.016216
 H         0.507137         1.702388        -0.947401
 H         2.395941         3.160425        -0.379126
 H         3.479113         1.807790        -0.174588
 H         2.352453         0.033831         0.774896
