19
Iteration:  1070
 O         4.342525         3.047378        -2.504809
 C         3.086071         2.337174        -2.386402
 C         1.945048         2.549073        -3.414214
 C         2.501498         1.125729        -3.213392
 C         1.782372         0.352547        -2.087999
 C         1.501272         1.261775        -0.939484
 C         2.737706         2.207100        -0.899536
 C         1.323206         0.379647         0.268367
 O         0.308993         0.152849         0.929829
 H         4.497237         3.354113        -3.428369
 H         0.889656         2.805473        -3.199233
 H         2.324382         3.165552        -4.333575
 H         2.741289         0.661337        -4.127475
 H         0.835765        -0.314583        -2.387369
 H         2.473668        -0.372789        -1.707081
 H         0.555892         1.918619        -0.992904
 H         2.377986         3.219590        -0.558758
 H         3.555748         1.859669        -0.296955
 H         2.313287        -0.053468         0.639228
