19
Iteration:   173
 O         4.296389         2.845135        -2.301458
 C         2.945651         2.405619        -2.405672
 C         2.113375         2.583016        -3.708677
 C         2.759213         1.162819        -3.084544
 C         1.716742         0.298302        -2.385463
 C         1.359879         1.059815        -0.992137
 C         2.226642         2.272060        -1.022503
 C         1.473908         0.288803         0.343078
 O         0.649416         0.491243         1.191997
 H         4.169292         3.856381        -2.259521
 H         1.114335         2.670017        -3.613375
 H         2.791443         2.706340        -4.535550
 H         3.415013         0.695558        -3.815771
 H         0.727868         0.179979        -2.931148
 H         2.175825        -0.730792        -2.258303
 H         0.192004         1.214768        -0.926746
 H         1.491060         3.127298        -1.007857
 H         2.809376         2.471201        -0.068374
 H         2.364880        -0.409044         0.584959
