19
Iteration:  2726
 O         4.343948         2.823586        -2.602578
 C         2.998364         2.441133        -2.427093
 C         2.154885         2.420791        -3.643797
 C         2.623058         1.095882        -3.039177
 C         1.736186         0.387137        -2.126848
 C         1.432928         1.325888        -0.780158
 C         2.558895         2.473737        -0.947909
 C         1.358286         0.518672         0.474244
 O         0.341037        -0.000832         0.870041
 H         4.174362         3.537236        -3.226537
 H         1.118367         2.727134        -3.406000
 H         2.627262         2.858513        -4.480698
 H         3.270145         0.547534        -3.664536
 H         0.735914         0.056986        -2.621165
 H         2.079835        -0.652114        -1.924913
 H         0.374387         1.517906        -0.942149
 H         2.232779         3.421975        -0.655367
 H         3.352182         2.204332        -0.300210
 H         2.242080         0.651195         1.162255
