19
Iteration:  4032
 O         4.368240         3.007649        -2.647606
 C         3.098644         2.286037        -2.373284
 C         1.955679         2.335575        -3.359756
 C         2.631223         1.035644        -3.130968
 C         1.906594         0.220121        -2.014694
 C         1.411003         1.344419        -0.986289
 C         2.521750         2.352677        -0.911537
 C         1.326180         0.634663         0.334573
 O         0.331049         0.193187         0.812844
 H         4.291590         3.718683        -2.020382
 H         0.934993         2.633333        -3.184546
 H         2.105304         2.915765        -4.250295
 H         3.096153         0.511056        -4.047863
 H         0.961819        -0.290793        -2.286712
 H         2.488814        -0.548116        -1.565082
 H         0.325471         1.548437        -1.290161
 H         2.183698         3.410419        -0.900531
 H         3.358607         2.049346        -0.141766
 H         2.371188         0.332278         0.669367
