19
Iteration:  4101charge 0 multiplicity 1
 O         4.352843         2.948793        -2.618762
 C         3.076732         2.395283        -2.437471
 C         2.156185         2.506969        -3.602497
 C         2.659499         1.096735        -3.114085
 C         1.822029         0.226863        -1.972862
 C         1.376297         1.205850        -0.942319
 C         2.476829         2.417622        -1.035182
 C         1.297951         0.514368         0.441464
 O         0.294958         0.085461         1.037579
 H         4.346031         3.784837        -3.058021
 H         1.146211         2.966123        -3.495128
 H         2.612968         2.929624        -4.534557
 H         3.463253         0.662223        -3.696963
 H         0.897476        -0.166455        -2.410680
 H         2.354484        -0.620055        -1.781359
 H         0.491079         1.740657        -1.184655
 H         1.939701         3.311560        -0.784601
 H         3.244568         2.188431        -0.329377
 H         2.267001         0.286029         0.865626
