19
Iteration:   678
 O         4.321173         2.971539        -2.517986
 C         3.022455         2.383940        -2.354222
 C         1.931871         2.657989        -3.365776
 C         2.561574         1.261733        -3.160226
 C         1.921750         0.243245        -2.302898
 C         1.467649         1.065832        -1.070699
 C         2.578152         2.071797        -0.934440
 C         1.323373         0.437677         0.339512
 O         0.373365         0.363274         1.109183
 H         4.449559         3.141930        -3.459661
 H         0.775919         3.058083        -3.169883
 H         2.378199         2.889587        -4.403632
 H         3.205458         0.920662        -3.990909
 H         1.108947        -0.264845        -2.824636
 H         2.599438        -0.464549        -1.874362
 H         0.445251         1.561618        -1.340338
 H         2.222567         2.878542        -0.206289
 H         3.245125         1.443224        -0.403474
 H         2.289860         0.025278         0.741214
