19
Iteration:  3845charge 0 multiplicity 1
 O         4.300105         2.953983        -2.555540
 C         3.055051         2.333148        -2.360618
 C         2.068159         2.363963        -3.440473
 C         2.729206         1.090005        -3.123175
 C         1.846381         0.194860        -2.175037
 C         1.370358         1.276459        -1.076846
 C         2.410020         2.433509        -1.015014
 C         1.289105         0.441650         0.259697
 O         0.442484         0.332749         1.135914
 H         4.295361         3.716543        -1.986403
 H         1.000850         2.624401        -3.370869
 H         2.568815         2.575057        -4.341756
 H         3.545006         0.661091        -3.674560
 H         0.984163        -0.177461        -2.769259
 H         2.412618        -0.694747        -1.852750
 H         0.255740         1.681312        -1.111194
 H         1.844012         3.294077        -0.747592
 H         3.191013         2.211275        -0.323902
 H         2.319331        -0.074445         0.403761
