19
Iteration:   602
 O         4.350344         2.907256        -2.609417
 C         2.987269         2.472989        -2.343991
 C         2.158817         2.508768        -3.538599
 C         2.601682         1.201649        -3.099546
 C         1.741911         0.379947        -2.217585
 C         1.279002         1.295516        -0.906243
 C         2.556138         2.251951        -0.902376
 C         1.346556         0.375414         0.296776
 O         0.458170         0.104254         1.103167
 H         4.154607         3.445339        -3.369740
 H         1.028979         2.941506        -3.560085
 H         2.658547         2.891328        -4.489213
 H         3.460869         0.754550        -3.580449
 H         0.811885         0.002259        -2.589909
 H         2.227075        -0.471048        -1.790765
 H         0.287278         1.720872        -1.203478
 H         2.211239         3.125093        -0.353794
 H         3.316887         1.665523        -0.467360
 H         2.367807        -0.091683         0.384905
