19
Iteration:  3019charge 0 multiplicity 1
 O         4.212964         3.130222        -2.298280
 C         3.101510         2.311611        -2.385051
 C         2.009747         2.375243        -3.563787
 C         2.653634         1.084495        -3.153250
 C         1.835288         0.141989        -2.311520
 C         1.406075         1.022424        -1.066382
 C         2.524745         2.145977        -0.918880
 C         1.382498         0.465124         0.277560
 O         0.428362         0.606928         1.068174
 H         4.155816         3.786556        -3.007713
 H         1.075033         2.829623        -3.080289
 H         2.325271         3.079885        -4.387684
 H         3.265631         0.670919        -4.019386
 H         0.881367        -0.253870        -2.711562
 H         2.441190        -0.662428        -1.938526
 H         0.390148         1.508973        -1.324130
 H         2.150618         3.086239        -0.357959
 H         3.336284         1.808332        -0.251500
 H         2.272507        -0.195216         0.558101
