19
Iteration:  4676
 O         4.307864         2.935637        -2.616465
 C         3.026318         2.381015        -2.424555
 C         1.929546         2.463845        -3.430363
 C         2.674770         1.045506        -3.094088
 C         1.975109         0.195037        -2.059455
 C         1.487728         1.169038        -0.994227
 C         2.559446         2.369997        -1.003135
 C         1.306906         0.439928         0.331637
 O         0.259650         0.395985         0.971515
 H         4.290796         3.845786        -2.293764
 H         0.957161         2.715532        -3.148565
 H         2.426933         2.765654        -4.344577
 H         3.337747         0.607233        -3.888260
 H         1.072068        -0.357074        -2.374910
 H         2.813531        -0.558405        -1.743724
 H         0.542017         1.631473        -1.288257
 H         1.874453         3.178520        -0.618364
 H         3.362351         2.063754        -0.343163
 H         2.236423         0.037023         0.779940
