19
Iteration:  3843
 O         4.298929         2.944523        -2.558900
 C         3.038692         2.321430        -2.350455
 C         2.063338         2.355046        -3.419517
 C         2.729249         1.077496        -3.130575
 C         1.855611         0.199346        -2.177162
 C         1.386061         1.283069        -1.091239
 C         2.392093         2.436693        -0.993740
 C         1.286140         0.461729         0.255036
 O         0.457582         0.334630         1.126516
 H         4.293769         3.760781        -1.981763
 H         0.993447         2.657531        -3.332920
 H         2.568568         2.567169        -4.389213
 H         3.611329         0.655234        -3.706096
 H         1.023619        -0.090397        -2.784223
 H         2.408701        -0.694196        -1.861134
 H         0.236321         1.690847        -1.140720
 H         1.767865         3.374170        -0.770345
 H         3.208105         2.100540        -0.246214
 H         2.287886        -0.098725         0.356846
