19
Iteration:  2241charge 0 multiplicity 1
 O         4.286148         2.981996        -2.601261
 C         3.024860         2.332890        -2.397467
 C         2.040063         2.488019        -3.448701
 C         2.665972         1.066426        -3.111444
 C         1.844433         0.292415        -2.086619
 C         1.508573         1.252802        -0.906763
 C         2.588663         2.322500        -0.935736
 C         1.321905         0.420091         0.372420
 O         0.257122         0.284305         0.916540
 H         4.088717         3.472403        -3.417338
 H         0.963832         2.760636        -3.220109
 H         2.459438         2.881827        -4.347926
 H         3.277132         0.646704        -3.926154
 H         1.030603        -0.442649        -2.546031
 H         2.687815        -0.380105        -1.645496
 H         0.488950         1.582252        -1.186634
 H         2.116005         3.249356        -0.556981
 H         3.475169         1.989005        -0.389688
 H         2.297808        -0.113089         0.698894
