19
Iteration:  1379charge 0 multiplicity 1
 O         4.296538         2.929569        -2.560014
 C         2.998785         2.379094        -2.337290
 C         1.989779         2.635399        -3.410374
 C         2.516583         1.205730        -3.273769
 C         1.745298         0.345088        -2.256599
 C         1.577131         1.130017        -0.958237
 C         2.562487         2.192919        -0.900481
 C         1.394704         0.293721         0.315334
 O         0.425298         0.357297         1.017381
 H         4.702413         3.026255        -1.656265
 H         0.912222         2.806928        -3.434205
 H         2.351638         3.051428        -4.299491
 H         3.246864         0.663353        -3.901440
 H         0.787624         0.030345        -2.748716
 H         2.356068        -0.439181        -2.117692
 H         0.555865         1.526537        -0.998082
 H         2.081696         2.981277        -0.372508
 H         3.398267         1.983699        -0.279491
 H         2.157192        -0.392073         0.674539
