19
Iteration:  4296
 O         4.263709         2.999090        -2.653439
 C         3.025572         2.440699        -2.386702
 C         2.137177         2.482918        -3.591591
 C         2.692480         1.191113        -3.135507
 C         1.915461         0.223461        -2.175386
 C         1.376893         1.042948        -1.013605
 C         2.542469         2.215749        -0.924451
 C         1.245707         0.280688         0.413310
 O         0.305706         0.501274         1.173627
 H         4.206946         3.910385        -2.373193
 H         1.186173         2.739687        -3.568203
 H         2.547278         2.742597        -4.574638
 H         3.327689         0.642532        -3.734286
 H         1.174940        -0.378965        -2.655163
 H         2.811929        -0.306818        -1.804229
 H         0.448734         1.387991        -1.394044
 H         2.050921         3.080075        -0.558620
 H         3.423417         2.100058        -0.284800
 H         1.992020        -0.440749         0.727443
