19
Iteration:  2566charge 0 multiplicity 1
 O         4.300742         2.924737        -2.592253
 C         3.018366         2.410077        -2.365642
 C         2.016236         2.354208        -3.454220
 C         2.676458         1.118555        -3.105043
 C         1.871268         0.218533        -2.261901
 C         1.434919         1.250389        -0.889593
 C         2.572510         2.326851        -0.915949
 C         1.292417         0.403604         0.271483
 O         0.357575         0.432118         1.027439
 H         4.257140         3.857033        -2.297989
 H         0.946577         2.249633        -3.086041
 H         2.263630         2.824213        -4.408682
 H         3.351698         0.752433        -3.832755
 H         1.007029        -0.157353        -2.755957
 H         2.508745        -0.690388        -2.016077
 H         0.521502         1.710562        -1.267158
 H         2.095712         3.188327        -0.384678
 H         3.295439         1.955107        -0.279503
 H         2.149962        -0.373317         0.349404
