19
Iteration:  2626charge 0 multiplicity 1
 O         4.338539         2.823347        -2.587086
 C         2.994198         2.447233        -2.448339
 C         2.008655         2.550898        -3.572293
 C         2.633771         1.221794        -3.172569
 C         1.909353         0.236646        -2.137925
 C         1.476131         1.090063        -0.896117
 C         2.596982         2.279835        -0.958561
 C         1.273903         0.528796         0.520130
 O         0.242531         0.225348         1.024357
 H         4.357503         3.728096        -2.995720
 H         0.977514         2.735013        -3.518756
 H         2.478106         3.114469        -4.406347
 H         3.494317         0.786969        -3.699571
 H         1.006738        -0.220955        -2.762224
 H         2.709876        -0.532995        -2.134602
 H         0.526378         1.507543        -1.286791
 H         2.122054         3.153632        -0.538337
 H         3.539923         2.084558        -0.388482
 H         2.282216         0.597776         1.060641
