19
Iteration:  2474
 O         4.392958         2.887924        -2.390660
 C         2.976708         2.388274        -2.302910
 C         1.926834         2.394435        -3.479844
 C         2.650800         1.137220        -3.039098
 C         1.849536         0.239160        -2.221297
 C         1.383166         1.169143        -1.141271
 C         2.368809         2.305444        -0.927915
 C         1.372032         0.403398         0.208855
 O         0.535110         0.503312         1.018165
 H         4.549960         3.261190        -3.278967
 H         0.851237         2.339246        -3.276213
 H         2.333530         2.930991        -4.295494
 H         3.260290         0.623206        -3.846117
 H         0.952467        -0.203242        -2.626601
 H         2.432402        -0.559813        -1.836189
 H         0.360524         1.609118        -1.213886
 H         1.858349         3.207787        -0.640092
 H         3.341280         2.125104        -0.339364
 H         2.397250        -0.025152         0.496790
