19
Iteration:  4017charge 0 multiplicity 1
 O         4.287111         3.000002        -2.681256
 C         3.140677         2.303890        -2.398105
 C         2.000138         2.433040        -3.438945
 C         2.656526         1.056892        -3.085323
 C         1.861413         0.244794        -2.077969
 C         1.439073         1.260883        -0.959947
 C         2.590881         2.320690        -0.994045
 C         1.296874         0.585038         0.383255
 O         0.272610         0.178382         0.880100
 H         4.395181         3.828195        -2.127228
 H         0.950904         2.401167        -3.036958
 H         2.262480         2.923963        -4.391441
 H         3.289259         0.498279        -3.666161
 H         0.986247        -0.318491        -2.431912
 H         2.620082        -0.437155        -1.511121
 H         0.557965         1.831179        -1.195773
 H         2.109225         3.239187        -0.476135
 H         3.326918         2.089542        -0.133749
 H         2.231965         0.627521         0.957703
