19
Iteration:  1659
 O         4.427747         2.801118        -2.557754
 C         3.125304         2.372309        -2.427889
 C         1.974434         2.643464        -3.357584
 C         2.413045         1.211928        -3.108900
 C         1.660362         0.325927        -2.082405
 C         1.382112         1.267803        -0.959366
 C         2.580797         2.381593        -0.991114
 C         1.456324         0.498704         0.256558
 O         0.468522         0.008308         0.831081
 H         4.779904         2.793342        -1.661719
 H         0.948305         2.856690        -2.980450
 H         2.070089         2.991763        -4.332066
 H         2.869410         0.563930        -3.827100
 H         0.697929        -0.094240        -2.402616
 H         2.359954        -0.421016        -1.737125
 H         0.462983         1.925953        -0.921599
 H         2.067953         3.294482        -0.569064
 H         3.408250         2.292450        -0.309036
 H         2.408774         0.420305         0.732804
