19
Iteration:  1565charge 0 multiplicity 1
 O         4.359584         2.939724        -2.502213
 C         3.063020         2.387523        -2.341924
 C         2.047192         2.523354        -3.401839
 C         2.440252         1.136893        -3.177957
 C         1.610724         0.399695        -2.201024
 C         1.463958         1.315104        -0.810893
 C         2.649811         2.352538        -0.934094
 C         1.461479         0.377642         0.297719
 O         0.393168         0.077549         0.893656
 H         4.567435         2.911178        -3.490414
 H         1.056278         2.835229        -3.139194
 H         2.370809         3.029272        -4.325492
 H         2.918052         0.663911        -4.052677
 H         0.632698         0.232726        -2.698495
 H         2.220149        -0.586922        -2.097012
 H         0.459870         1.623969        -1.025162
 H         2.529547         3.328913        -0.504660
 H         3.421006         1.996616        -0.217452
 H         2.459196        -0.220275         0.467876
