19
Iteration:  2098
 O         4.353629         2.894141        -2.575736
 C         3.094134         2.387670        -2.433352
 C         2.062651         2.618122        -3.484264
 C         2.562535         1.179950        -3.079088
 C         1.790907         0.225359        -2.070855
 C         1.402859         1.224037        -0.958903
 C         2.551642         2.344054        -1.030643
 C         1.391764         0.425091         0.350136
 O         0.327726         0.177809         0.968321
 H         4.259136         3.845957        -2.346584
 H         1.036871         2.887762        -3.501336
 H         2.592472         2.593770        -4.477866
 H         3.023682         0.634461        -3.853881
 H         0.882023        -0.360522        -2.356193
 H         2.403286        -0.649368        -1.662536
 H         0.406353         1.718241        -0.895717
 H         1.997125         3.227966        -0.635338
 H         3.361460         2.125022        -0.338598
 H         2.375328        -0.022382         0.599242
