19
Iteration:  2489charge 0 multiplicity 1
 O         4.273797         2.889178        -2.335280
 C         3.046468         2.324877        -2.392049
 C         1.944262         2.411642        -3.397636
 C         2.689578         1.101978        -3.186865
 C         1.844240         0.220345        -2.193781
 C         1.348050         1.182625        -1.051852
 C         2.461027         2.302226        -1.021859
 C         1.400919         0.486720         0.239011
 O         0.497495         0.491992         1.028223
 H         4.398555         3.541248        -3.021710
 H         0.964312         2.657963        -2.960812
 H         2.098758         2.898203        -4.453138
 H         3.508496         0.756671        -3.800725
 H         1.102571        -0.290876        -2.798685
 H         2.521638        -0.615357        -1.675224
 H         0.337965         1.579346        -1.289595
 H         2.147216         3.322556        -0.695003
 H         3.080839         1.905064        -0.284019
 H         2.202939        -0.207235         0.294144
