19
Iteration:  4803charge 0 multiplicity 1
 O         4.303695         2.949427        -2.459132
 C         2.902773         2.401696        -2.382884
 C         2.149701         2.452191        -3.694270
 C         2.624629         1.137464        -3.127464
 C         1.937526         0.217543        -2.216111
 C         1.401098         1.053381        -1.027622
 C         2.343350         2.239935        -0.976674
 C         1.306164         0.380820         0.351010
 O         0.446681         0.552103         1.183737
 H         4.453057         3.946818        -2.420775
 H         1.036729         2.669480        -3.781659
 H         2.706547         2.755627        -4.679177
 H         3.596298         0.745952        -3.686602
 H         1.313710        -0.511551        -2.769573
 H         2.691386        -0.335069        -1.662387
 H         0.363576         1.485772        -1.175966
 H         1.996121         3.079692        -0.409828
 H         3.224458         1.899345        -0.330882
 H         2.139236        -0.342783         0.551531
