19
Iteration:   149
 O         4.280664         3.044012        -2.418678
 C         3.026894         2.383046        -2.321399
 C         2.259344         2.458703        -3.610627
 C         2.706204         1.023942        -3.124599
 C         1.589842         0.230661        -2.330961
 C         1.266717         1.091461        -1.057505
 C         2.262890         2.457712        -1.024074
 C         1.341248         0.350532         0.195764
 O         0.730466         0.373913         1.260749
 H         4.454950         3.695105        -1.738294
 H         1.174842         2.523072        -3.381191
 H         2.871036         2.911044        -4.407005
 H         3.472304         0.460182        -3.571492
 H         0.627020        -0.202310        -2.798623
 H         2.243184        -0.632189        -1.976898
 H         0.186864         1.453504        -1.103752
 H         1.735639         3.435808        -0.771769
 H         3.001504         2.262280        -0.180426
 H         2.142158        -0.532916         0.075434
