19
Iteration:  4411
 O         4.297802         2.915899        -2.508078
 C         2.944187         2.424553        -2.444719
 C         2.049996         2.427891        -3.598684
 C         2.715634         1.124633        -3.068080
 C         1.884513         0.248543        -2.164671
 C         1.428142         1.163344        -0.922707
 C         2.493996         2.293620        -1.008284
 C         1.324037         0.344713         0.339443
 O         0.329873         0.409706         1.066245
 H         4.426735         3.862921        -2.467912
 H         1.042131         2.752234        -3.465545
 H         2.349010         2.899619        -4.589794
 H         3.441861         0.768426        -3.671915
 H         1.031968        -0.211207        -2.674115
 H         2.586277        -0.436099        -1.756404
 H         0.530325         1.706640        -1.138893
 H         2.168770         3.278921        -0.510036
 H         3.456624         2.043131        -0.505598
 H         2.346652        -0.197873         0.598398
