19
Iteration:  1423
 O         4.341602         3.033441        -2.634853
 C         3.087753         2.364836        -2.332852
 C         1.965118         2.580144        -3.411285
 C         2.573138         1.272751        -3.225693
 C         1.755348         0.289524        -2.194104
 C         1.402394         1.199984        -1.067260
 C         2.638113         2.055648        -0.910535
 C         1.283838         0.364065         0.297309
 O         0.421395         0.268040         1.096411
 H         4.664454         3.407107        -1.765423
 H         0.912311         2.658526        -3.134618
 H         2.358207         3.194778        -4.176621
 H         3.107542         0.753485        -3.998958
 H         0.734113        -0.089333        -2.513938
 H         2.308806        -0.533243        -1.847096
 H         0.454809         1.706417        -1.122524
 H         2.490649         2.983495        -0.407242
 H         3.481999         1.628716        -0.414903
 H         2.325720        -0.047762         0.455550
