19
Iteration:  4821charge 0 multiplicity 1
 O         4.236462         2.867990        -2.435026
 C         3.005639         2.416456        -2.484889
 C         2.124025         2.507233        -3.657605
 C         2.738076         1.180565        -3.128210
 C         1.949959         0.174834        -2.131972
 C         1.270672         1.063238        -1.014165
 C         2.330372         2.279257        -0.999607
 C         1.322005         0.373740         0.314421
 O         0.489878         0.549065         1.169787
 H         4.285404         3.875973        -2.428895
 H         1.035701         2.637991        -3.497415
 H         2.743958         3.061871        -4.382597
 H         3.509605         0.711296        -3.746916
 H         1.213219        -0.517748        -2.533381
 H         2.540180        -0.723116        -1.738339
 H         0.321730         1.292056        -1.459163
 H         1.884989         3.222709        -0.667660
 H         3.182085         2.038787        -0.314140
 H         2.286029        -0.203693         0.575764
