19
Iteration:   127
 O         4.246409         3.069431        -2.410304
 C         3.027594         2.381087        -2.330910
 C         2.143568         2.320132        -3.627835
 C         2.709825         1.069705        -2.969505
 C         1.700764         0.330880        -2.208818
 C         1.181594         1.249730        -1.116840
 C         2.269447         2.316820        -1.017054
 C         1.331837         0.348420         0.108590
 O         0.789352         0.353850         1.190742
 H         4.758605         3.105943        -1.555501
 H         1.055260         2.647675        -3.560308
 H         2.883448         2.466616        -4.411169
 H         3.462024         0.615349        -3.551309
 H         0.892103         0.166167        -3.009293
 H         2.014660        -0.679288        -1.790653
 H         0.230233         1.822102        -1.338991
 H         1.888673         3.333577        -0.655710
 H         3.048059         1.960598        -0.263942
 H         2.340138        -0.397063        -0.061851
