19
Iteration:  2905charge 0 multiplicity 1
 O         4.260848         3.022388        -2.455765
 C         3.061708         2.287115        -2.384697
 C         2.003158         2.450908        -3.382084
 C         2.650168         1.028686        -3.136907
 C         1.771275         0.218938        -2.112299
 C         1.436248         1.342757        -1.008100
 C         2.597531         2.268850        -0.934103
 C         1.382910         0.598582         0.278814
 O         0.350595         0.225142         0.864964
 H         4.445572         3.481323        -3.297336
 H         0.926780         2.368960        -3.132778
 H         2.088489         2.741072        -4.403210
 H         3.397788         0.571509        -3.714269
 H         0.780484        -0.165706        -2.322899
 H         2.469477        -0.568923        -1.658969
 H         0.505092         1.780588        -1.274100
 H         2.500153         3.245467        -0.562147
 H         3.403410         1.813929        -0.422656
 H         2.376073         0.429478         0.727042
