19
Iteration:  3222charge 0 multiplicity 1
 O         4.276176         2.953948        -2.574127
 C         2.985150         2.381397        -2.306101
 C         2.037137         2.436576        -3.509991
 C         2.737632         1.150782        -3.074759
 C         1.955247         0.270273        -2.197637
 C         1.384542         1.113584        -1.030886
 C         2.452027         2.200900        -0.909998
 C         1.204127         0.306068         0.213238
 O         0.495160         0.574277         1.121910
 H         4.019568         3.906274        -2.557602
 H         0.928990         2.594770        -3.435760
 H         2.541179         3.056506        -4.211375
 H         3.320329         0.584028        -3.942365
 H         1.131089        -0.232408        -2.741699
 H         2.640390        -0.499133        -1.807456
 H         0.493082         1.571305        -1.412922
 H         1.801737         3.026916        -0.502707
 H         3.311875         1.866210        -0.176043
 H         1.920317        -0.625449         0.156437
