19
Iteration:  2054charge 0 multiplicity 1
 O         4.307794         2.910367        -2.423892
 C         3.010403         2.364461        -2.363437
 C         2.044171         2.430063        -3.457294
 C         2.663980         1.146924        -3.019255
 C         1.710995         0.341665        -2.268566
 C         1.359603         1.295597        -1.029194
 C         2.513767         2.330312        -0.984335
 C         1.363152         0.466510         0.270797
 O         0.493395         0.186528         1.048262
 H         4.402289         2.797774        -3.393481
 H         1.000811         2.487641        -3.276257
 H         2.460572         2.982876        -4.343134
 H         3.392623         0.753606        -3.658179
 H         0.799831         0.178609        -2.896928
 H         2.174200        -0.691418        -2.078525
 H         0.322794         1.704877        -1.225342
 H         2.277984         3.419869        -0.696100
 H         3.337201         2.127234        -0.224636
 H         2.536339         0.186462         0.364228
