19
Iteration:    84
 O         4.205734         3.037449        -2.324598
 C         3.017604         2.369237        -2.373797
 C         2.214871         2.490193        -3.642727
 C         2.619506         1.122394        -3.091974
 C         1.725970         0.249086        -2.324195
 C         1.423752         1.004060        -1.029703
 C         2.265084         2.340973        -1.025639
 C         1.476206         0.456080         0.354823
 O         0.558173         0.386722         1.171776
 H         4.814037         2.393063        -2.794026
 H         1.122306         2.846735        -3.757905
 H         2.843874         2.775909        -4.480500
 H         3.232117         0.609958        -3.788686
 H         0.701205         0.183600        -2.799926
 H         2.239897        -0.748467        -2.197494
 H         0.267934         1.137566        -1.131650
 H         1.625326         3.260504        -0.929344
 H         3.118565         2.267995        -0.299351
 H         2.414573         0.118957         0.573308
