19
Iteration:   984charge 0 multiplicity 1
 O         4.484540         2.903656        -2.412816
 C         3.057502         2.412761        -2.473380
 C         1.990057         2.585357        -3.512759
 C         2.368504         1.179926        -3.102118
 C         1.741788         0.340621        -2.068046
 C         1.478439         1.291949        -0.899744
 C         2.589313         2.323141        -1.032297
 C         1.378781         0.389550         0.295902
 O         0.385171         0.044475         0.914293
 H         4.458197         3.665556        -3.064116
 H         1.058388         3.038852        -3.156762
 H         2.232398         2.692612        -4.632120
 H         2.803753         0.559119        -3.827233
 H         0.724163        -0.052619        -2.354212
 H         2.484198        -0.421467        -1.750126
 H         0.415345         1.687499        -1.055210
 H         2.330072         3.329769        -0.556237
 H         3.459967         2.091486        -0.384506
 H         2.385584        -0.042762         0.601746
