19
Iteration:  3215
 O         4.239840         2.968603        -2.508071
 C         3.028201         2.366572        -2.289722
 C         1.986840         2.414742        -3.482879
 C         2.737172         1.118361        -3.064123
 C         1.921849         0.248049        -2.204735
 C         1.419764         1.116042        -1.129144
 C         2.461350         2.216438        -0.901618
 C         1.225449         0.338470         0.156935
 O         0.522739         0.588477         1.126696
 H         4.187211         3.960724        -2.655593
 H         0.872448         2.470071        -3.487006
 H         2.493944         3.009701        -4.257471
 H         3.221106         0.653501        -3.842665
 H         1.156739        -0.231306        -2.813005
 H         2.508862        -0.619970        -1.783475
 H         0.430811         1.620329        -1.423499
 H         1.969919         3.129251        -0.355789
 H         3.196138         1.788799        -0.187151
 H         1.915293        -0.502690         0.231176
