19
Iteration:  2020
 O         4.358316         3.083304        -2.348832
 C         3.046042         2.341672        -2.406001
 C         2.179977         2.514341        -3.700526
 C         2.432509         1.164662        -3.145345
 C         1.688357         0.303770        -2.162216
 C         1.327864         1.203642        -0.905634
 C         2.481500         2.318736        -1.009954
 C         1.433680         0.325945         0.299359
 O         0.486180         0.248719         1.078061
 H         4.935647         2.417208        -2.754058
 H         1.225199         2.982986        -3.747797
 H         2.838489         2.742817        -4.482947
 H         2.895754         0.446848        -3.812240
 H         0.696351        -0.082216        -2.586006
 H         2.359165        -0.622175        -2.083268
 H         0.331122         1.624345        -0.856952
 H         1.890359         3.272787        -0.879833
 H         3.349556         2.133255        -0.334325
 H         2.402894        -0.284438         0.577978
