19
Iteration:  2518
 O         4.337829         3.028029        -2.471619
 C         3.044593         2.389362        -2.394182
 C         2.068794         2.478067        -3.562837
 C         2.557526         1.147667        -3.221145
 C         1.825094         0.174992        -2.175894
 C         1.429782         1.048323        -1.037530
 C         2.482357         2.190822        -1.004426
 C         1.332825         0.453851         0.381852
 O         0.373170         0.458078         1.158494
 H         4.217117         3.962505        -2.748204
 H         1.183515         3.054846        -3.504310
 H         2.793354         2.754372        -4.336971
 H         3.351354         0.617494        -3.825468
 H         1.073569        -0.375417        -2.684746
 H         2.497724        -0.555991        -1.875167
 H         0.498727         1.554803        -1.364657
 H         2.125196         3.120592        -0.582683
 H         3.220310         1.686203        -0.247360
 H         2.282872        -0.181945         0.689905
