19
Iteration:  3613
 O         4.398882         2.945942        -2.587054
 C         3.099088         2.395947        -2.388081
 C         1.931670         2.411306        -3.345400
 C         2.618332         1.067986        -3.038210
 C         1.894793         0.195018        -2.147664
 C         1.369882         1.231496        -1.088744
 C         2.444953         2.350362        -0.932237
 C         1.383472         0.493601         0.272018
 O         0.379672         0.362342         0.927706
 H         4.500974         3.873451        -2.198624
 H         0.845152         2.368386        -3.127686
 H         1.956150         2.549936        -4.401454
 H         3.262993         0.580001        -3.676174
 H         1.123970        -0.336838        -2.739622
 H         2.526352        -0.584064        -1.623064
 H         0.273565         1.559543        -1.243556
 H         2.106406         3.322746        -0.445730
 H         3.246958         2.065623        -0.195938
 H         2.314381        -0.068198         0.546836
