19
Iteration:  4816charge 0 multiplicity 1
 O         4.273664         2.875571        -2.446134
 C         2.965597         2.435834        -2.442463
 C         2.112891         2.516536        -3.702318
 C         2.743750         1.168458        -3.130168
 C         1.943067         0.180380        -2.143349
 C         1.265771         1.061198        -1.034451
 C         2.356948         2.267558        -0.982304
 C         1.345713         0.347939         0.338078
 O         0.465526         0.557957         1.177976
 H         4.043696         3.803187        -2.423793
 H         1.076901         2.753264        -3.587300
 H         2.742953         2.955507        -4.476681
 H         3.614015         0.717482        -3.640217
 H         1.173735        -0.598138        -2.481636
 H         2.671324        -0.589040        -1.794820
 H         0.197137         1.342232        -1.322100
 H         1.890567         3.215801        -0.620664
 H         3.259233         1.984564        -0.444983
 H         2.212919        -0.242666         0.585592
