19
Iteration:  4923charge 0 multiplicity 1
 O         4.277017         2.964035        -2.505349
 C         3.013980         2.403704        -2.431490
 C         2.206605         2.372156        -3.690855
 C         2.724229         1.162602        -3.022307
 C         1.833774         0.218294        -2.166747
 C         1.302804         1.195328        -1.007461
 C         2.418385         2.376636        -1.100189
 C         1.301523         0.360519         0.369650
 O         0.436645         0.346772         1.203911
 H         4.037042         3.867788        -2.412397
 H         1.138487         2.718773        -3.612271
 H         2.741104         2.688504        -4.597656
 H         3.404036         0.482902        -3.539015
 H         0.975867        -0.061627        -2.648978
 H         2.402718        -0.510848        -1.648282
 H         0.241523         1.544917        -1.106983
 H         2.018238         3.332032        -0.782964
 H         3.292895         2.196350        -0.419426
 H         2.230683        -0.295294         0.522697
