19
Iteration:  2777charge 0 multiplicity 1
 O         4.434076         2.783851        -2.503621
 C         3.085875         2.351720        -2.385808
 C         2.004889         2.516828        -3.518035
 C         2.572074         1.093028        -3.079317
 C         1.708031         0.280794        -2.105328
 C         1.327361         1.375564        -1.041311
 C         2.493398         2.385490        -1.022809
 C         1.325907         0.754035         0.432558
 O         0.519982        -0.039227         0.884880
 H         4.290792         3.756531        -2.460649
 H         0.952663         2.645729        -3.391864
 H         2.445619         2.690613        -4.451404
 H         3.314915         0.570903        -3.620929
 H         0.878458        -0.240598        -2.609038
 H         2.207884        -0.464161        -1.444559
 H         0.297233         1.794598        -1.181121
 H         2.170696         3.466244        -0.707018
 H         3.146105         1.992863        -0.183642
 H         2.343689         0.775459         0.917053
