19
Iteration:  3788charge 0 multiplicity 1
 O         4.261260         2.947551        -2.330051
 C         3.009796         2.394471        -2.429165
 C         2.152496         2.521208        -3.713547
 C         2.642688         1.123847        -3.197466
 C         1.832519         0.160816        -2.194695
 C         1.454041         1.043027        -1.011061
 C         2.427868         2.302416        -0.997294
 C         1.285843         0.412219         0.340715
 O         0.452916         0.463052         1.229861
 H         4.339889         3.752731        -2.922107
 H         1.070087         2.733942        -3.699317
 H         2.630194         2.972370        -4.660096
 H         3.272115         0.622025        -4.045216
 H         0.976285        -0.222033        -2.736951
 H         2.553997        -0.662117        -1.973586
 H         0.361260         1.591428        -1.228956
 H         1.732619         3.131132        -0.728636
 H         3.216495         2.080120        -0.295906
 H         2.274401        -0.056386         0.675547
