19
Iteration:   198
 O         4.302291         2.801676        -2.186858
 C         2.902407         2.455543        -2.321460
 C         2.141647         2.530390        -3.586718
 C         2.548717         1.164653        -3.222948
 C         1.809071         0.170788        -2.361691
 C         1.348503         1.049251        -1.122923
 C         2.190941         2.341797        -1.036397
 C         1.509624         0.395392         0.287182
 O         0.664928         0.514236         1.156276
 H         4.431163         3.386479        -2.984280
 H         1.113673         2.842735        -3.330665
 H         2.730482         3.016354        -4.322936
 H         3.517138         0.796883        -3.708475
 H         0.894324        -0.188137        -2.755521
 H         2.483541        -0.655990        -2.170928
 H         0.256418         1.127548        -1.203591
 H         1.635208         3.184464        -0.649839
 H         2.975325         2.114582        -0.303762
 H         2.595789         0.036218         0.645512
