19
Iteration:  4351charge 0 multiplicity 1
 O         4.378224         3.007378        -2.512996
 C         3.059897         2.316191        -2.359237
 C         1.886211         2.453438        -3.384584
 C         2.659177         1.064964        -3.121733
 C         1.952735         0.171280        -2.174216
 C         1.387664         1.124486        -1.039938
 C         2.440675         2.220441        -0.929335
 C         1.376506         0.472767         0.260674
 O         0.367081         0.552805         0.966695
 H         4.158386         3.965868        -2.479228
 H         0.890085         2.397901        -3.015166
 H         2.171964         2.938770        -4.278508
 H         3.296810         0.628472        -3.953619
 H         1.168012        -0.460411        -2.596672
 H         2.650913        -0.651450        -1.824294
 H         0.426950         1.426120        -1.460688
 H         2.049949         3.140099        -0.576065
 H         3.259052         1.912137        -0.261175
 H         2.366192        -0.126658         0.499829
