19
Iteration:  4908
 O         4.298209         2.980047        -2.481606
 C         2.996444         2.420755        -2.447670
 C         2.208017         2.404362        -3.753091
 C         2.720389         1.032563        -3.138361
 C         1.810236         0.316701        -2.156010
 C         1.327393         1.167096        -0.974547
 C         2.311624         2.302760        -0.958295
 C         1.318527         0.419705         0.368699
 O         0.448970         0.365696         1.227702
 H         4.407550         3.947243        -2.448289
 H         1.126550         2.585921        -3.855496
 H         2.822941         2.749600        -4.621897
 H         3.630996         0.721816        -3.692684
 H         0.997361        -0.257269        -2.685262
 H         2.540722        -0.558395        -1.803548
 H         0.392027         1.574165        -1.278550
 H         1.847143         3.186478        -0.513069
 H         3.144842         1.947978        -0.375239
 H         2.335348        -0.187120         0.391936
