19
Iteration:   923charge 0 multiplicity 1
 O         4.485590         2.928939        -2.629554
 C         3.109083         2.436249        -2.376153
 C         2.043707         2.555202        -3.447346
 C         2.528852         1.086229        -3.103642
 C         1.547768         0.338099        -2.234711
 C         1.351985         1.235872        -0.946904
 C         2.555346         2.432901        -0.911355
 C         1.416237         0.430710         0.445927
 O         0.438367         0.033763         0.933383
 H         4.656186         3.719666        -2.019088
 H         1.040425         2.708611        -3.272589
 H         2.321535         2.961785        -4.415312
 H         3.066534         0.580044        -3.992247
 H         0.720091         0.028953        -2.783961
 H         1.951410        -0.605526        -1.832890
 H         0.355565         1.505720        -1.002421
 H         2.224446         3.405592        -0.724147
 H         3.346280         2.117769        -0.292061
 H         2.421087        -0.010037         0.692476
