19
Iteration:  2095
 O         4.354258         2.898654        -2.578744
 C         3.092104         2.389493        -2.398768
 C         2.082761         2.593456        -3.471339
 C         2.559175         1.178216        -3.070635
 C         1.776144         0.245930        -2.085049
 C         1.387498         1.209983        -0.945635
 C         2.533816         2.335130        -1.033890
 C         1.384552         0.432797         0.334588
 O         0.355783         0.184416         0.960029
 H         4.326755         3.892532        -2.490469
 H         1.056116         2.856012        -3.412285
 H         2.533466         2.632853        -4.437514
 H         3.073923         0.627109        -3.848899
 H         0.871016        -0.375892        -2.363452
 H         2.366954        -0.606383        -1.703753
 H         0.422036         1.642562        -0.988578
 H         2.063141         3.284551        -0.715619
 H         3.299914         2.064104        -0.383595
 H         2.350990         0.036651         0.622857
