19
Iteration:  1021
 O         4.360573         2.916491        -2.574476
 C         3.061010         2.387748        -2.301978
 C         2.022766         2.574699        -3.432677
 C         2.481133         1.199796        -3.162664
 C         1.752984         0.351542        -2.222530
 C         1.504074         1.174270        -0.946471
 C         2.590868         2.280753        -0.862770
 C         1.363169         0.487148         0.391284
 O         0.362482         0.102579         0.900663
 H         4.364866         3.160462        -3.530595
 H         1.000858         2.774334        -3.119293
 H         2.198938         3.082099        -4.312532
 H         3.360445         0.746147        -3.733246
 H         0.784543         0.101221        -2.448950
 H         2.269690        -0.649071        -2.218823
 H         0.603137         1.694363        -1.145474
 H         2.178722         3.190867        -0.475995
 H         3.476056         1.839784        -0.313258
 H         2.397678         0.284341         0.867544
