19
Iteration:  1116charge 0 multiplicity 1
 O         4.346029         2.912409        -2.609564
 C         3.013078         2.416078        -2.349498
 C         1.920467         2.602491        -3.389238
 C         2.601049         1.232762        -3.132622
 C         1.824725         0.325812        -2.224563
 C         1.484457         1.165754        -0.883219
 C         2.659893         2.170318        -0.867523
 C         1.353529         0.363605         0.350559
 O         0.308314         0.241587         0.897349
 H         4.315761         3.656561        -3.282079
 H         0.831293         2.787710        -3.229442
 H         2.233985         2.975777        -4.365865
 H         3.400765         0.698918        -3.770108
 H         0.943410        -0.106621        -2.854053
 H         2.422969        -0.560825        -1.920454
 H         0.503533         1.667355        -1.003066
 H         2.168144         3.055301        -0.431101
 H         3.600547         1.932606        -0.314957
 H         2.337710         0.110609         0.853150
