19
Iteration:   563
 O         4.395126         2.830336        -2.480566
 C         3.070928         2.390706        -2.429749
 C         2.025801         2.512639        -3.461575
 C         2.496065         1.153599        -3.167385
 C         1.707831         0.309461        -2.179340
 C         1.403655         1.261111        -0.877015
 C         2.433323         2.402415        -1.077266
 C         1.467688         0.529947         0.380136
 O         0.461676         0.055049         0.939135
 H         4.674087         3.615506        -1.962699
 H         1.097616         2.805009        -3.144109
 H         2.326191         2.978377        -4.353297
 H         3.139768         0.647255        -3.942352
 H         0.742373         0.023767        -2.709463
 H         2.339191        -0.683452        -2.044512
 H         0.384317         1.640720        -0.798647
 H         2.058543         3.420637        -0.893221
 H         3.313548         2.298560        -0.306040
 H         2.470536         0.361846         0.892002
