19
Iteration:  1414charge 0 multiplicity 1
 O         4.354270         3.058936        -2.629039
 C         3.095677         2.415283        -2.370770
 C         2.015615         2.595525        -3.374613
 C         2.524030         1.176828        -3.193458
 C         1.720582         0.309688        -2.291443
 C         1.410471         1.143416        -1.001568
 C         2.619713         2.107592        -0.930544
 C         1.363213         0.337326         0.338134
 O         0.374326         0.284117         1.113633
 H         4.735082         3.470086        -1.810104
 H         0.919162         2.881172        -3.197978
 H         2.380522         2.887392        -4.385543
 H         3.147270         0.927464        -4.024730
 H         0.793989        -0.200776        -2.657166
 H         2.319422        -0.486068        -2.048668
 H         0.563720         1.732306        -1.219214
 H         2.420831         2.987928        -0.342450
 H         3.264914         1.451035        -0.419952
 H         2.320268        -0.156199         0.574177
