19
Iteration:   505
 O         4.428794         2.748001        -2.649302
 C         3.100217         2.376094        -2.433778
 C         2.064191         2.602996        -3.547969
 C         2.508933         1.170194        -3.099550
 C         1.803766         0.430631        -2.020863
 C         1.299770         1.365004        -0.865522
 C         2.430089         2.425234        -0.967270
 C         1.322727         0.497935         0.332096
 O         0.468561        -0.132575         0.961577
 H         4.545261         3.695839        -2.787367
 H         1.005728         3.103890        -3.319985
 H         2.481915         2.928798        -4.547058
 H         3.308012         0.654169        -3.569048
 H         0.968872        -0.167600        -2.374016
 H         2.477259        -0.349323        -1.429935
 H         0.293344         1.756676        -1.051866
 H         2.005051         3.436257        -0.851619
 H         3.317172         2.194692        -0.205982
 H         2.400646         0.467305         0.702236
