19
Iteration:  2037charge 0 multiplicity 1
 O         4.321550         2.996714        -2.401239
 C         3.052613         2.408584        -2.397255
 C         2.124432         2.526079        -3.590937
 C         2.616796         1.071876        -3.140848
 C         1.611143         0.305404        -2.159637
 C         1.372149         1.230240        -0.954173
 C         2.421945         2.327866        -0.959640
 C         1.434682         0.393907         0.280632
 O         0.502065         0.230161         1.023991
 H         5.017443         2.790691        -3.037128
 H         1.037926         2.845857        -3.416721
 H         2.486205         2.826680        -4.612651
 H         3.318809         0.495183        -3.826985
 H         0.687273        -0.009830        -2.620857
 H         2.096549        -0.507645        -1.663793
 H         0.363723         1.688361        -1.033340
 H         2.120248         3.247973        -0.494909
 H         3.260979         1.990384        -0.305703
 H         2.344527        -0.153797         0.450382
