19
Iteration:  3470charge 0 multiplicity 1
 O         4.333447         2.795286        -2.576109
 C         2.993596         2.427321        -2.402358
 C         2.101644         2.466184        -3.725389
 C         2.616243         1.145329        -3.113981
 C         1.826271         0.340295        -2.044922
 C         1.503161         1.304691        -0.886769
 C         2.485882         2.464484        -0.965735
 C         1.287722         0.484894         0.390548
 O         0.329372         0.011464         0.991646
 H         4.393711         3.776941        -2.629053
 H         1.078478         2.616148        -3.709622
 H         2.583551         2.720305        -4.645941
 H         3.542817         0.771038        -3.624060
 H         0.953105        -0.085561        -2.557243
 H         2.334299        -0.526219        -1.613104
 H         0.626057         1.913963        -0.796488
 H         1.968158         3.404110        -0.507656
 H         3.366595         2.266736        -0.240365
 H         2.285350         0.625284         0.986543
