19
Iteration:  4392charge 0 multiplicity 1
 O         4.343714         2.950387        -2.532052
 C         3.010754         2.415859        -2.375420
 C         2.045012         2.474862        -3.668490
 C         2.625884         1.183424        -3.246124
 C         1.949724         0.236642        -2.185314
 C         1.444363         1.061158        -1.013295
 C         2.475239         2.230918        -0.869242
 C         1.336874         0.438735         0.442100
 O         0.289784         0.427431         1.118140
 H         4.271367         3.900314        -2.635595
 H         1.010194         2.494811        -3.658884
 H         2.424201         2.915357        -4.605794
 H         3.368909         0.674675        -3.759526
 H         1.110502        -0.277383        -2.646669
 H         2.702783        -0.505812        -1.865696
 H         0.365283         1.437600        -1.088261
 H         2.149793         3.200215        -0.414877
 H         3.253495         1.824432        -0.233141
 H         2.067201        -0.196722         0.856352
