19
Iteration:  4880charge 0 multiplicity 1
 O         4.240043         2.918158        -2.408492
 C         3.023995         2.352823        -2.345906
 C         2.111204         2.376833        -3.597282
 C         2.712293         1.076275        -3.029427
 C         1.802892         0.207463        -2.232732
 C         1.358263         1.129676        -1.066005
 C         2.311463         2.333740        -1.012803
 C         1.415878         0.484695         0.296444
 O         0.512967         0.472913         1.095597
 H         4.333304         3.849546        -2.535000
 H         1.031001         2.630307        -3.537280
 H         2.606377         2.765323        -4.516028
 H         3.589257         0.824598        -3.654631
 H         1.002395        -0.188463        -2.877969
 H         2.446361        -0.516736        -1.848006
 H         0.332539         1.510249        -1.354917
 H         1.815675         3.263549        -0.696047
 H         3.069798         2.047480        -0.197957
 H         2.409567         0.025687         0.419338
