19
Iteration:  3140
 O         4.273628         2.886239        -2.372870
 C         2.915317         2.460590        -2.336725
 C         2.134304         2.560204        -3.618700
 C         2.734165         1.185594        -3.182668
 C         1.896019         0.175203        -2.276654
 C         1.340528         0.932925        -1.111242
 C         2.296552         2.199695        -1.012597
 C         1.309841         0.287905         0.354638
 O         0.589503         0.694419         1.220089
 H         4.264336         3.811051        -2.585350
 H         1.024384         2.726784        -3.792078
 H         2.650465         2.901268        -4.545979
 H         3.579198         0.942658        -3.717949
 H         1.018873        -0.331980        -2.740748
 H         2.605608        -0.608232        -1.965166
 H         0.229687         1.203577        -1.334166
 H         1.757465         3.041549        -0.519091
 H         3.023879         1.977404        -0.307509
 H         2.036372        -0.562623         0.506385
