19
Iteration:  3960charge 0 multiplicity 1
 O         4.281376         2.960280        -2.592380
 C         3.063033         2.352440        -2.412363
 C         2.021559         2.428674        -3.484470
 C         2.623688         1.067414        -3.100173
 C         1.953303         0.278417        -2.070347
 C         1.458867         1.263960        -0.871606
 C         2.592554         2.404446        -0.966640
 C         1.332641         0.477600         0.416012
 O         0.228742         0.230263         0.878463
 H         4.233998         3.610255        -3.279007
 H         0.903583         2.710040        -3.491621
 H         2.524725         2.818242        -4.386504
 H         3.175049         0.482829        -3.901061
 H         1.031255        -0.279483        -2.410986
 H         2.595274        -0.546904        -1.625301
 H         0.470096         1.636212        -1.094904
 H         2.178509         3.319372        -0.494451
 H         3.443947         2.017783        -0.388413
 H         2.245444        -0.084963         0.703628
