19
Iteration:  3276charge 0 multiplicity 1
 O         4.329044         2.891989        -2.518122
 C         3.062115         2.372701        -2.394886
 C         1.960439         2.517244        -3.512474
 C         2.638579         1.162830        -3.190137
 C         1.939562         0.211362        -2.157300
 C         1.475180         1.161371        -1.000756
 C         2.484969         2.310915        -0.982408
 C         1.323202         0.377017         0.370227
 O         0.323521         0.419415         1.029155
 H         4.226804         3.863924        -2.316460
 H         0.910947         2.513672        -3.126720
 H         2.078202         2.988972        -4.458704
 H         3.356644         0.588136        -3.927298
 H         1.096457        -0.409908        -2.530186
 H         2.765647        -0.335236        -1.713950
 H         0.497997         1.503563        -1.210013
 H         2.075277         3.166671        -0.571393
 H         3.247600         1.990629        -0.254754
 H         2.210810        -0.204777         0.676179
