19
Iteration:  2824charge 0 multiplicity 1
 O         4.438682         2.740237        -2.617224
 C         3.050039         2.456950        -2.430624
 C         2.063477         2.438133        -3.626799
 C         2.553541         1.150035        -3.016655
 C         1.780084         0.319136        -1.976273
 C         1.407599         1.343751        -0.778374
 C         2.431013         2.529529        -1.010518
 C         1.382470         0.524455         0.409195
 O         0.366678        -0.033940         0.787923
 H         4.558289         3.689018        -2.562095
 H         1.199643         2.911028        -3.206338
 H         2.540215         2.840514        -4.537800
 H         3.135374         0.455395        -3.662465
 H         0.763734        -0.223401        -2.302504
 H         2.426499        -0.529841        -1.535704
 H         0.450138         1.828223        -0.998475
 H         1.843630         3.462329        -0.955115
 H         3.322937         2.697841        -0.401620
 H         2.372341         0.411465         0.915568
