19
Iteration:  1296
 O         4.254695         2.931843        -2.394774
 C         2.977646         2.471393        -2.366011
 C         2.047903         2.556312        -3.544370
 C         2.629366         1.254858        -3.180964
 C         1.687024         0.294065        -2.269692
 C         1.523603         1.130731        -0.959241
 C         2.536165         2.232490        -0.940184
 C         1.466995         0.341456         0.323782
 O         0.408519         0.313124         1.055695
 H         4.593852         2.489364        -3.154097
 H         1.061530         2.938038        -3.097770
 H         2.549644         3.070064        -4.341486
 H         3.064816         0.779825        -4.004859
 H         0.734536         0.157823        -2.785013
 H         2.081378        -0.839652        -2.156824
 H         0.478418         1.373424        -0.971824
 H         2.026689         3.115195        -0.518100
 H         3.525126         1.921038        -0.468973
 H         2.364220        -0.285165         0.508000
