19
Iteration:  3907charge 0 multiplicity 1
 O         4.276810         2.912062        -2.518517
 C         3.041945         2.355351        -2.405257
 C         2.038127         2.469457        -3.551766
 C         2.706590         1.072969        -3.119446
 C         1.878392         0.255999        -2.139854
 C         1.453242         1.198091        -0.979220
 C         2.465140         2.296778        -0.936593
 C         1.330555         0.564805         0.349680
 O         0.334172         0.267633         1.006923
 H         4.219597         3.569024        -3.200067
 H         0.948502         2.641582        -3.279890
 H         2.323756         3.009928        -4.470595
 H         3.660834         0.796918        -3.616944
 H         0.922145        -0.109977        -2.474515
 H         2.429950        -0.553506        -1.647872
 H         0.586738         1.704064        -1.352290
 H         1.868434         3.160644        -0.447232
 H         3.459820         2.074669        -0.374063
 H         2.349855         0.271276         0.773168
