19
Iteration:   940charge 0 multiplicity 1
 O         4.354893         2.807177        -2.728765
 C         3.083693         2.384674        -2.306113
 C         2.077824         2.548548        -3.416546
 C         2.630654         1.200352        -3.047480
 C         1.646489         0.351141        -2.225454
 C         1.388294         1.286986        -0.893214
 C         2.463201         2.341828        -0.899688
 C         1.382639         0.444764         0.306773
 O         0.463619         0.039397         0.929117
 H         4.531472         3.764141        -2.483323
 H         1.015956         2.808999        -3.120421
 H         2.537930         3.038759        -4.331703
 H         3.401097         0.774481        -3.604867
 H         0.619174         0.352085        -2.746711
 H         2.083965        -0.672031        -2.093807
 H         0.435819         1.945881        -0.993539
 H         2.036973         3.281902        -0.374728
 H         3.260074         2.078572        -0.095843
 H         2.427120         0.370384         0.743453
