19
Iteration:  3379
 O         4.353319         2.842245        -2.673566
 C         2.994578         2.449946        -2.354342
 C         2.065519         2.407004        -3.562530
 C         2.607196         1.143769        -2.969785
 C         1.827811         0.333838        -2.034314
 C         1.491772         1.329464        -0.914776
 C         2.485516         2.415805        -0.942161
 C         1.384282         0.482274         0.383293
 O         0.307852         0.110651         0.841179
 H         4.251069         3.784100        -2.639298
 H         1.007016         2.690973        -3.429399
 H         2.541905         2.523087        -4.563291
 H         3.193062         0.538322        -3.594660
 H         1.003665        -0.183623        -2.521538
 H         2.347921        -0.504327        -1.523657
 H         0.399666         1.602502        -1.102587
 H         2.130138         3.442751        -0.528776
 H         3.403689         2.118518        -0.357230
 H         2.377818        -0.002190         0.640656
