19
Iteration:   169charge 0 multiplicity 1
 O         4.306492         2.891157        -2.340663
 C         2.958870         2.371333        -2.387826
 C         2.157823         2.528512        -3.679159
 C         2.738624         1.161367        -3.113611
 C         1.730756         0.328025        -2.357369
 C         1.323919         1.109720        -1.008555
 C         2.221545         2.268825        -1.033078
 C         1.465506         0.246686         0.332567
 O         0.655667         0.478062         1.216014
 H         4.069366         3.789861        -2.090159
 H         0.971332         2.714237        -3.614287
 H         2.897301         2.733255        -4.498597
 H         3.369891         0.659065        -3.803371
 H         0.771351         0.238796        -2.935970
 H         2.096655        -0.718227        -2.234775
 H         0.276033         1.229801        -0.970413
 H         1.516663         3.144477        -0.976220
 H         2.738434         2.511861        -0.099890
 H         2.265011        -0.375827         0.527176
