19
Iteration:  2153
 O         4.280891         3.012561        -2.738176
 C         3.077694         2.406111        -2.332318
 C         1.963906         2.526777        -3.387026
 C         2.622602         1.125281        -3.043279
 C         1.903502         0.154681        -2.089228
 C         1.461915         1.188773        -0.959949
 C         2.570089         2.282053        -0.904073
 C         1.315668         0.544501         0.284773
 O         0.284115         0.228944         0.871674
 H         4.962485         2.496514        -2.299030
 H         1.012259         2.913795        -2.951679
 H         2.216057         3.023659        -4.329164
 H         3.343095         0.687573        -3.764822
 H         0.837574        -0.115978        -2.370116
 H         2.685163        -0.612751        -1.783150
 H         0.440811         1.589185        -1.175903
 H         2.291533         3.207392        -0.368027
 H         3.371915         1.915529        -0.319772
 H         2.322052         0.303036         0.718147
