19
Iteration:  4232
 O         4.350422         2.929129        -2.410047
 C         3.010456         2.418795        -2.303835
 C         1.976910         2.346401        -3.577315
 C         2.621661         1.080522        -3.124826
 C         1.852357         0.196002        -2.173847
 C         1.349170         1.182344        -1.073440
 C         2.433344         2.320355        -0.885555
 C         1.446236         0.517957         0.266107
 O         0.452062         0.410901         0.980310
 H         4.354628         3.639849        -3.074018
 H         0.908599         2.555315        -3.404905
 H         2.497333         2.803764        -4.499834
 H         3.352317         0.779159        -3.837846
 H         0.894202        -0.223184        -2.494335
 H         2.535720        -0.635261        -1.869887
 H         0.392215         1.599950        -1.094078
 H         1.927467         3.208830        -0.543823
 H         3.104235         1.987920         0.024040
 H         2.430650         0.103387         0.480522
