19
Iteration:  2074
 O         4.394631         2.882238        -2.541457
 C         3.079016         2.346600        -2.351881
 C         2.006445         2.464317        -3.458087
 C         2.667667         1.122929        -3.131984
 C         1.763372         0.315960        -2.225901
 C         1.328614         1.297469        -1.061235
 C         2.448284         2.356372        -0.837844
 C         1.400362         0.499309         0.319655
 O         0.442106         0.180456         0.988371
 H         4.207633         3.481348        -3.264296
 H         1.022902         2.613745        -3.114428
 H         2.312150         3.050256        -4.288290
 H         3.391407         0.567719        -3.695490
 H         0.810125        -0.071881        -2.718231
 H         2.178520        -0.656086        -1.832935
 H         0.384566         1.739651        -1.006939
 H         1.888886         3.148135        -0.317459
 H         3.160565         2.015063        -0.174110
 H         2.453667         0.275669         0.561301
