19
Iteration:   300charge 0 multiplicity 1
 O         4.206649         3.238738        -2.589140
 C         3.078661         2.387813        -2.365422
 C         2.069453         2.415543        -3.489976
 C         2.656097         1.146947        -3.116422
 C         1.747866         0.223930        -2.256947
 C         1.451817         1.096268        -0.996652
 C         2.593804         2.147372        -0.851993
 C         1.276752         0.310770         0.271549
 O         0.389209         0.417345         1.107508
 H         5.028305         2.750780        -2.561846
 H         0.928949         2.768028        -3.450508
 H         2.555017         2.951153        -4.441203
 H         3.409929         0.641986        -3.702528
 H         0.825127        -0.004697        -2.801512
 H         2.230693        -0.716274        -2.103771
 H         0.580563         1.715986        -1.128313
 H         2.156400         3.093932        -0.421365
 H         3.461385         1.766286        -0.344820
 H         2.304503        -0.187483         0.668873
