19
Iteration:   426charge 0 multiplicity 1
 O         4.249081         3.041102        -2.498392
 C         3.035170         2.416240        -2.425362
 C         1.985447         2.417694        -3.485493
 C         2.534311         1.109810        -3.020732
 C         1.748655         0.316600        -2.014046
 C         1.461923         1.381835        -0.898488
 C         2.688216         2.209355        -0.968420
 C         1.365738         0.538883         0.276962
 O         0.379168         0.065130         0.792452
 H         4.748072         2.868895        -3.303792
 H         0.974195         2.611890        -3.089234
 H         2.262285         2.886807        -4.463171
 H         3.083109         0.614559        -3.823676
 H         0.781316        -0.113040        -2.358111
 H         2.424969        -0.480469        -1.530994
 H         0.546738         2.023507        -0.983012
 H         2.733634         3.181794        -0.437121
 H         3.656773         1.742391        -0.547392
 H         2.410898         0.285628         0.589324
