19
Iteration:  2544
 O         4.251722         2.927680        -2.627058
 C         2.994505         2.398102        -2.412425
 C         2.060872         2.554465        -3.627908
 C         2.788804         1.161208        -3.094050
 C         1.805853         0.261307        -2.208574
 C         1.489363         1.087943        -0.973099
 C         2.512318         2.220349        -0.905041
 C         1.298912         0.300170         0.393132
 O         0.313170         0.471912         1.136038
 H         4.262829         3.881540        -2.424162
 H         0.924070         2.569738        -3.626533
 H         2.663580         3.059881        -4.436809
 H         3.484356         0.642911        -3.685886
 H         1.022097        -0.170197        -2.814218
 H         2.438982        -0.654980        -1.878368
 H         0.540226         1.625321        -1.231113
 H         2.155010         3.141012        -0.358789
 H         3.271442         1.773355        -0.340546
 H         2.302086        -0.054902         0.921865
