19
Iteration:  4381
 O         4.340699         2.979480        -2.547704
 C         2.983424         2.365314        -2.384045
 C         2.010962         2.511890        -3.576110
 C         2.650921         1.139831        -3.148005
 C         1.960563         0.204406        -2.231483
 C         1.439056         1.042543        -0.968448
 C         2.488545         2.179147        -0.939283
 C         1.276680         0.428547         0.414261
 O         0.309965         0.466741         1.113635
 H         4.305791         3.959406        -2.669306
 H         1.020702         2.788742        -3.594834
 H         2.698802         2.989515        -4.319372
 H         3.292996         0.741271        -3.842649
 H         1.166523        -0.392276        -2.691867
 H         2.748658        -0.514635        -1.934971
 H         0.521781         1.535257        -1.425629
 H         1.963072         3.103128        -0.575626
 H         3.376384         2.018921        -0.343942
 H         2.282404         0.177195         0.680939
