19
Iteration:  2958charge 0 multiplicity 1
 O         4.276143         2.914219        -2.617566
 C         2.967304         2.457056        -2.401502
 C         2.026545         2.545860        -3.535639
 C         2.690067         1.237831        -3.109287
 C         2.014928         0.199868        -2.142084
 C         1.512952         1.047600        -0.919769
 C         2.501409         2.280852        -0.929731
 C         1.259258         0.334114         0.378006
 O         0.230544         0.424337         1.060736
 H         4.635857         3.161928        -3.484009
 H         1.016237         2.989018        -3.444215
 H         2.548574         3.194982        -4.195378
 H         3.300555         0.808387        -3.832216
 H         1.228620        -0.500925        -2.551662
 H         2.852094        -0.513840        -1.856728
 H         0.562304         1.401301        -1.201118
 H         2.036055         3.117454        -0.535914
 H         3.465557         2.092509        -0.430103
 H         2.082541        -0.393903         0.699980
