19
Iteration:  2948charge 0 multiplicity 1
 O         4.332135         2.970941        -2.563073
 C         2.983529         2.481551        -2.421784
 C         2.050814         2.610108        -3.586242
 C         2.606279         1.143826        -3.144989
 C         1.971978         0.150922        -2.080845
 C         1.528306         1.060327        -0.968549
 C         2.539301         2.322034        -0.982096
 C         1.285756         0.321835         0.470280
 O         0.212071         0.388196         1.024463
 H         4.238835         3.104753        -3.514599
 H         1.052483         2.834306        -3.158260
 H         2.420156         3.102281        -4.469629
 H         3.381034         0.771490        -3.723996
 H         1.174857        -0.253280        -2.717233
 H         2.761097        -0.591019        -1.736329
 H         0.573566         1.447777        -1.131229
 H         2.145719         3.118468        -0.481225
 H         3.372296         2.038683        -0.383934
 H         2.090267        -0.393366         0.841924
