19
Iteration:   520
 O         4.355477         2.634988        -2.583334
 C         2.979366         2.454444        -2.358396
 C         2.025474         2.565150        -3.522219
 C         2.548657         1.187766        -3.048146
 C         1.786073         0.347781        -2.039046
 C         1.344429         1.405232        -0.980131
 C         2.436250         2.508318        -0.989341
 C         1.458830         0.488057         0.371473
 O         0.499652        -0.030464         0.849697
 H         4.539522         3.463677        -2.111170
 H         1.072978         2.780504        -3.323430
 H         2.459029         2.839884        -4.433191
 H         3.036854         0.660898        -3.910333
 H         0.976887        -0.354570        -2.378116
 H         2.609526        -0.201315        -1.603119
 H         0.310649         1.723979        -1.148239
 H         2.171776         3.457241        -0.543665
 H         3.192582         2.209282        -0.337904
 H         2.515261         0.257711         0.641831
