19
Iteration:  4968charge 0 multiplicity 1
 O         4.290081         2.905603        -2.536607
 C         2.975842         2.337891        -2.331893
 C         2.019031         2.418902        -3.451077
 C         2.782076         1.061748        -3.031953
 C         1.844658         0.198910        -2.114797
 C         1.374933         1.164661        -1.033780
 C         2.406755         2.402128        -1.008529
 C         1.406346         0.536235         0.262292
 O         0.421168         0.375905         0.952487
 H         4.208180         3.806559        -2.793405
 H         0.962094         2.575118        -3.269685
 H         2.319870         2.660784        -4.433849
 H         3.493336         0.515539        -3.586603
 H         1.171497        -0.218882        -2.853379
 H         2.432657        -0.592164        -1.631536
 H         0.269620         1.477634        -0.998667
 H         2.055528         3.434195        -0.814032
 H         3.159398         2.183451        -0.224448
 H         2.349310         0.214149         0.800008
