19
Iteration:  3275
 O         4.327967         2.896284        -2.518791
 C         3.068153         2.375214        -2.398444
 C         1.959926         2.519420        -3.517654
 C         2.631007         1.162673        -3.193612
 C         1.945851         0.213095        -2.159737
 C         1.484311         1.155680        -0.989256
 C         2.484351         2.307605        -0.986045
 C         1.315780         0.376352         0.364503
 O         0.319211         0.418675         1.041501
 H         4.270995         3.851769        -2.313064
 H         0.921233         2.546888        -3.128917
 H         2.070015         2.960620        -4.472516
 H         3.400827         0.605804        -3.917341
 H         1.095918        -0.403626        -2.551293
 H         2.761238        -0.349446        -1.702778
 H         0.505612         1.509232        -1.192291
 H         2.052860         3.150252        -0.592147
 H         3.221231         1.987981        -0.258633
 H         2.188430        -0.209709         0.659420
