19
Iteration:  2180
 O         4.270567         3.188279        -2.642853
 C         3.161287         2.256156        -2.383304
 C         1.930890         2.425027        -3.358502
 C         2.644810         1.045869        -3.145139
 C         1.862418         0.232766        -2.124675
 C         1.438800         1.239279        -0.927487
 C         2.648381         2.215226        -0.911438
 C         1.297967         0.542442         0.351108
 O         0.246013         0.238037         0.875341
 H         4.885163         2.639775        -3.122369
 H         1.033643         2.870994        -2.989926
 H         2.246443         3.125323        -4.178522
 H         3.120009         0.517553        -3.984315
 H         1.003210        -0.222175        -2.478827
 H         2.589436        -0.473812        -1.751530
 H         0.461499         1.755084        -1.019944
 H         2.382177         3.239811        -0.645510
 H         3.498214         1.993642        -0.108929
 H         2.207506         0.262379         0.879355
