19
Iteration:  1298
 O         4.257599         2.936490        -2.402321
 C         2.969032         2.459573        -2.363712
 C         2.053797         2.576548        -3.535746
 C         2.635578         1.239701        -3.183423
 C         1.686531         0.296713        -2.274145
 C         1.524998         1.137671        -0.954164
 C         2.535686         2.219937        -0.945064
 C         1.455004         0.349427         0.335194
 O         0.413146         0.308495         1.061088
 H         4.596178         2.463779        -3.157605
 H         1.057005         2.905162        -3.106588
 H         2.541412         3.140021        -4.314126
 H         3.087376         0.728653        -4.025302
 H         0.771293         0.107577        -2.776427
 H         2.107644        -0.765426        -2.214214
 H         0.435426         1.405397        -1.028171
 H         1.987004         3.112521        -0.556537
 H         3.501708         1.951229        -0.468792
 H         2.371867        -0.308594         0.504877
