19
Iteration:  4680
 O         4.317692         2.944117        -2.604966
 C         3.032152         2.395741        -2.452257
 C         1.955690         2.421087        -3.432395
 C         2.641473         1.090909        -3.134051
 C         1.979481         0.175929        -2.053908
 C         1.495119         1.152483        -0.998232
 C         2.556466         2.360810        -0.992926
 C         1.294848         0.461214         0.341177
 O         0.248457         0.391577         0.992229
 H         4.308533         3.867495        -2.249944
 H         0.886552         2.773138        -3.295213
 H         2.380188         2.793720        -4.357376
 H         3.308679         0.597024        -3.750615
 H         1.168693        -0.453682        -2.400736
 H         2.697387        -0.517161        -1.797028
 H         0.548137         1.637879        -1.267043
 H         1.963089         3.153615        -0.554031
 H         3.461395         2.187115        -0.313426
 H         2.267234        -0.100504         0.787230
