19
Iteration:  4104charge 0 multiplicity 1
 O         4.370597         2.960315        -2.608999
 C         3.080547         2.402443        -2.453857
 C         2.144318         2.491622        -3.570648
 C         2.658131         1.089633        -3.122945
 C         1.816862         0.212624        -1.968855
 C         1.387063         1.240367        -0.929834
 C         2.444643         2.374943        -1.040979
 C         1.290320         0.518033         0.417691
 O         0.309626         0.094349         1.032550
 H         4.357775         3.841146        -3.041393
 H         1.196017         2.982925        -3.514177
 H         2.572542         2.958956        -4.533620
 H         3.411238         0.631629        -3.654195
 H         0.909235        -0.121179        -2.520683
 H         2.337627        -0.770253        -1.716431
 H         0.427960         1.689877        -1.165725
 H         2.002008         3.356040        -0.759799
 H         3.213854         2.250159        -0.318912
 H         2.339844         0.345124         0.817232
