19
Iteration:  1208
 O         4.348388         2.827897        -2.590596
 C         3.006242         2.430775        -2.324008
 C         1.985604         2.620758        -3.523707
 C         2.601389         1.199327        -3.096166
 C         1.804559         0.361744        -2.262852
 C         1.445677         1.142835        -0.934340
 C         2.475920         2.302075        -0.900171
 C         1.411181         0.344313         0.335240
 O         0.415785         0.251129         0.970406
 H         4.423906         3.592698        -2.032540
 H         0.961522         2.742959        -3.266182
 H         2.340444         3.114210        -4.464387
 H         3.185136         0.694388        -3.805298
 H         0.934598        -0.037630        -2.704524
 H         2.318748        -0.623725        -1.909879
 H         0.451342         1.541464        -0.891507
 H         2.239589         3.283564        -0.508132
 H         3.358497         1.755250        -0.418860
 H         2.309834        -0.145323         0.723791
