19
Iteration:  2425charge 0 multiplicity 1
 O         4.285920         3.038443        -2.325080
 C         3.097513         2.356269        -2.481849
 C         2.146447         2.508674        -3.730326
 C         2.614415         1.115037        -3.289362
 C         1.783376         0.266465        -2.230881
 C         1.308445         1.114812        -0.971268
 C         2.482389         2.290448        -0.983748
 C         1.312422         0.384616         0.377064
 O         0.455260         0.372861         1.286140
 H         4.858586         3.113989        -3.120966
 H         1.102046         2.792324        -3.583489
 H         2.702487         2.804970        -4.703501
 H         3.293224         0.608199        -3.954844
 H         0.808569        -0.236218        -2.565651
 H         2.421780        -0.586786        -1.888171
 H         0.264703         1.450835        -1.059292
 H         1.790941         3.174974        -0.838011
 H         3.263753         2.206686        -0.194916
 H         2.210504        -0.330103         0.606608
