19
Iteration:  3680charge 0 multiplicity 1
 O         4.329036         3.069757        -2.465433
 C         3.001865         2.468795        -2.452957
 C         2.124793         2.507554        -3.569469
 C         2.623601         1.036050        -3.175217
 C         1.882662         0.132511        -2.196392
 C         1.425768         1.039132        -0.999932
 C         2.519058         2.297970        -0.956136
 C         1.274301         0.349870         0.368663
 O         0.329571         0.482325         1.174609
 H         4.214928         3.809208        -3.031601
 H         1.035982         2.810503        -3.517664
 H         2.555440         2.610026        -4.601393
 H         3.241715         0.662915        -4.057636
 H         0.899732        -0.260337        -2.607549
 H         2.598595        -0.754295        -2.092916
 H         0.460338         1.578997        -1.374625
 H         2.104891         3.043519        -0.243995
 H         3.418196         1.923068        -0.338293
 H         2.221969        -0.223220         0.642135
