19
Iteration:  1301
 O         4.266746         2.947132        -2.413375
 C         2.962671         2.433555        -2.362125
 C         2.053645         2.611980        -3.513850
 C         2.629812         1.208627        -3.182565
 C         1.699572         0.301069        -2.284103
 C         1.510714         1.135694        -0.949232
 C         2.531880         2.212329        -0.953295
 C         1.427601         0.354285         0.355801
 O         0.432335         0.302536         1.061481
 H         4.663555         2.438747        -3.185573
 H         1.068321         2.838741        -3.205953
 H         2.505773         3.241586        -4.310250
 H         3.171643         0.668509        -4.033688
 H         0.737948         0.052445        -2.783834
 H         2.166808        -0.616908        -2.260091
 H         0.438341         1.509793        -1.094703
 H         1.999961         3.102846        -0.580989
 H         3.442478         2.005190        -0.427658
 H         2.345306        -0.312443         0.531432
