19
Iteration:  1764
 O         4.378523         3.056312        -2.474901
 C         3.133577         2.332812        -2.339594
 C         1.965626         2.575416        -3.317563
 C         2.466076         1.108319        -3.203970
 C         1.714535         0.280980        -2.186085
 C         1.453584         1.246803        -0.991477
 C         2.651457         2.250780        -0.872829
 C         1.363929         0.373797         0.256087
 O         0.374368         0.248996         0.905873
 H         4.613471         2.846579        -3.372400
 H         0.927249         2.945348        -2.880872
 H         2.203981         2.884719        -4.334637
 H         2.685335         0.566616        -4.089192
 H         0.735344        -0.214531        -2.448620
 H         2.354943        -0.627632        -2.033171
 H         0.491883         1.715744        -1.032518
 H         2.415236         3.278247        -0.623533
 H         3.578780         1.805215        -0.325851
 H         2.479457        -0.098840         0.448517
