19
Iteration:   825charge 0 multiplicity 1
 O         4.408677         2.929640        -2.548180
 C         3.187602         2.335922        -2.368007
 C         2.043005         2.596374        -3.405731
 C         2.475064         1.181831        -3.212882
 C         1.739423         0.310763        -2.213640
 C         1.400556         1.162572        -0.967136
 C         2.524549         2.317036        -0.948032
 C         1.356792         0.359883         0.340333
 O         0.411902         0.208367         1.037606
 H         4.098733         3.830341        -2.877484
 H         1.089608         2.873179        -3.028952
 H         2.355169         3.066617        -4.337328
 H         2.996533         0.607188        -3.997888
 H         0.824863        -0.130225        -2.578822
 H         2.412499        -0.493488        -1.933099
 H         0.458683         1.569127        -0.991516
 H         1.933480         3.190335        -0.809260
 H         3.264413         2.413799        -0.178447
 H         2.236948        -0.307434         0.538601
