19
Iteration:    34
 O         4.281492         2.745368        -2.350316
 C         2.978689         2.477683        -2.435131
 C         1.986878         2.465534        -3.510500
 C         2.576736         1.151581        -3.138566
 C         2.032956         0.297907        -2.090729
 C         1.390384         1.187358        -1.104921
 C         2.317199         2.359052        -0.968074
 C         1.374256         0.432479         0.205509
 O         0.515067         0.361353         1.080685
 H         4.550159         3.125246        -3.197404
 H         1.083097         2.843532        -3.124286
 H         2.167560         2.667948        -4.573437
 H         3.312301         0.736502        -3.863050
 H         1.289946        -0.418958        -2.442188
 H         2.844011        -0.255193        -1.625141
 H         0.430612         1.479018        -1.463343
 H         1.670584         3.167995        -0.620746
 H         3.165106         2.276284        -0.300825
 H         2.371697         0.216103         0.377011
