19
Iteration:    72charge 0 multiplicity 1
 O         4.326763         3.014381        -2.321152
 C         3.020881         2.406818        -2.429698
 C         2.204346         2.556179        -3.645316
 C         2.585268         1.146933        -3.210802
 C         1.775571         0.251783        -2.240615
 C         1.341953         0.981558        -0.979503
 C         2.213083         2.282560        -1.091730
 C         1.517526         0.409373         0.442297
 O         0.508953         0.393959         1.143079
 H         4.971889         2.663935        -2.933180
 H         1.125204         2.828950        -3.349217
 H         2.544240         2.885317        -4.620866
 H         3.128558         0.545633        -3.934345
 H         0.940772        -0.275789        -2.796404
 H         2.442378        -0.652296        -2.003489
 H         0.274491         1.341055        -1.038958
 H         1.524278         3.163499        -0.920620
 H         2.863786         2.394236        -0.177299
 H         2.429704         0.164689         0.833619
