19
Iteration:   447charge 0 multiplicity 1
 O         4.238356         2.995340        -2.441092
 C         3.009870         2.350061        -2.358834
 C         1.921426         2.388826        -3.534245
 C         2.586847         1.088570        -3.130336
 C         1.633154         0.374309        -2.157368
 C         1.536684         1.342880        -0.901482
 C         2.679841         2.309152        -0.884016
 C         1.480719         0.611405         0.437689
 O         0.413496         0.058678         0.727546
 H         4.744025         2.910723        -3.295735
 H         0.822812         2.360619        -3.568415
 H         2.387978         2.876881        -4.415674
 H         3.268404         0.459668        -3.762410
 H         0.601847         0.222694        -2.589944
 H         2.004701        -0.571482        -1.713224
 H         0.532175         1.863065        -0.995919
 H         2.558348         3.238494        -0.274727
 H         3.563811         1.857436        -0.286038
 H         2.416727         0.341496         0.992371
