19
Iteration:  1534charge 0 multiplicity 1
 O         4.365791         2.875943        -2.410688
 C         2.986929         2.480740        -2.359194
 C         1.896917         2.596800        -3.397050
 C         2.492171         1.163930        -3.093535
 C         1.735649         0.352127        -2.158515
 C         1.402457         1.280348        -0.980851
 C         2.661530         2.170304        -0.963498
 C         1.410158         0.453933         0.243511
 O         0.480159         0.171883         0.888866
 H         4.743410         2.861956        -3.274146
 H         0.884356         2.949843        -3.070640
 H         2.224039         3.146684        -4.375032
 H         3.014241         0.650390        -3.942104
 H         0.773025        -0.150388        -2.580881
 H         2.356171        -0.509729        -1.953416
 H         0.440973         1.647100        -1.164267
 H         2.648837         3.057177        -0.329380
 H         3.497491         1.569224        -0.655250
 H         2.368003         0.042656         0.543433
