19
Iteration:  2257
 O         4.358585         2.966483        -2.611556
 C         3.191046         2.368352        -2.370506
 C         1.965787         2.431519        -3.381930
 C         2.577913         1.106926        -3.099641
 C         1.927017         0.180416        -2.118731
 C         1.378834         1.226376        -1.013519
 C         2.559672         2.347778        -0.979930
 C         1.295128         0.490142         0.299939
 O         0.301973         0.254233         0.990499
 H         4.197166         3.908683        -2.893727
 H         0.996678         2.607847        -2.970206
 H         2.178631         2.940262        -4.361384
 H         3.206379         0.603037        -3.820410
 H         1.033333        -0.133855        -2.479863
 H         2.411017        -0.713775        -1.791016
 H         0.432036         1.776329        -1.089330
 H         2.184033         3.361205        -0.954845
 H         3.306296         2.239555        -0.167577
 H         2.258700         0.062248         0.767849
