19
Iteration:   438
 O         4.262894         3.036880        -2.422040
 C         2.952768         2.344846        -2.359008
 C         1.903069         2.361347        -3.516784
 C         2.558330         1.063517        -3.110869
 C         1.693262         0.377405        -2.118888
 C         1.475542         1.420886        -0.884412
 C         2.759547         2.285801        -0.884230
 C         1.454783         0.520912         0.317513
 O         0.420452         0.095167         0.744010
 H         4.610094         2.739289        -3.305821
 H         0.789633         2.733648        -3.422639
 H         2.326645         2.725828        -4.517421
 H         3.327392         0.496294        -3.615645
 H         0.755605         0.014155        -2.550793
 H         2.211189        -0.656016        -1.824286
 H         0.497583         1.930517        -1.012715
 H         2.571931         3.262221        -0.419185
 H         3.602569         1.584795        -0.463546
 H         2.318844         0.568564         0.993257
