19
Iteration:  2079charge 0 multiplicity 1
 O         4.408542         2.893436        -2.554427
 C         3.067762         2.365742        -2.367039
 C         2.051601         2.452805        -3.463186
 C         2.601368         1.107123        -3.106824
 C         1.756509         0.315377        -2.185447
 C         1.354529         1.272426        -1.033813
 C         2.426176         2.334995        -0.886195
 C         1.416762         0.485848         0.305474
 O         0.411419         0.182620         0.983012
 H         4.163216         3.642486        -3.165076
 H         1.065120         2.780182        -2.995091
 H         2.352224         3.159296        -4.299045
 H         3.384104         0.583746        -3.695780
 H         0.891666        -0.024185        -2.711424
 H         2.352092        -0.552522        -1.843083
 H         0.258771         1.683198        -1.090338
 H         2.016949         3.246259        -0.364296
 H         3.289751         1.999383        -0.128939
 H         2.529873         0.251610         0.611047
