19
Iteration:  1373charge 0 multiplicity 1
 O         4.295686         2.908678        -2.554590
 C         2.992056         2.389269        -2.339369
 C         1.981337         2.588425        -3.413030
 C         2.496893         1.211729        -3.255421
 C         1.788015         0.378237        -2.313790
 C         1.518607         1.148507        -0.959690
 C         2.553776         2.211997        -0.853576
 C         1.439054         0.302625         0.277942
 O         0.408488         0.363438         1.024135
 H         4.712297         2.903255        -1.656084
 H         0.874907         2.767921        -3.192236
 H         2.441622         3.051330        -4.334574
 H         3.115823         0.575801        -3.869961
 H         0.917440        -0.081984        -2.798811
 H         2.505372        -0.547621        -2.040219
 H         0.505217         1.573348        -0.870025
 H         2.105698         3.099188        -0.309137
 H         3.563163         2.016393        -0.329631
 H         2.267769        -0.466699         0.497263
