19
Iteration:  1149charge 0 multiplicity 1
 O         4.345994         2.948218        -2.659142
 C         3.071242         2.391232        -2.404440
 C         1.973421         2.680803        -3.318770
 C         2.575809         1.126722        -3.132428
 C         1.857585         0.282825        -2.143923
 C         1.386227         1.189548        -1.006418
 C         2.633294         2.147781        -0.942990
 C         1.260303         0.429284         0.263357
 O         0.359083         0.179250         1.024321
 H         4.547396         3.837898        -2.294680
 H         0.911667         2.861549        -3.054267
 H         2.317163         3.095372        -4.221049
 H         3.326592         0.869328        -3.935780
 H         0.996629        -0.209181        -2.711158
 H         2.533177        -0.463149        -1.719665
 H         0.531154         1.846041        -1.102535
 H         2.263674         3.098287        -0.542092
 H         3.404047         1.846340        -0.265416
 H         2.304756         0.197105         0.558373
