19
Iteration:   521charge 0 multiplicity 1
 O         4.352524         2.633035        -2.575856
 C         2.976797         2.462171        -2.345343
 C         2.019825         2.558508        -3.525593
 C         2.540382         1.187466        -3.048517
 C         1.793218         0.336677        -2.048941
 C         1.351115         1.406013        -0.970091
 C         2.437322         2.506701        -0.991758
 C         1.467443         0.492625         0.365197
 O         0.499594        -0.022763         0.842673
 H         4.563376         3.430756        -2.081990
 H         1.062694         2.774402        -3.307970
 H         2.453653         2.851138        -4.434457
 H         3.040559         0.649958        -3.904845
 H         0.961478        -0.350229        -2.374097
 H         2.570415        -0.202946        -1.603940
 H         0.300868         1.709389        -1.166236
 H         2.165543         3.458065        -0.541700
 H         3.206241         2.232243        -0.370766
 H         2.524332         0.271753         0.622409
