19
Iteration:  2747charge 0 multiplicity 1
 O         4.387330         2.876844        -2.557114
 C         3.082645         2.387526        -2.437405
 C         2.157133         2.530438        -3.659050
 C         2.539398         1.085405        -3.153757
 C         1.674971         0.346399        -2.121877
 C         1.481541         1.243525        -0.896332
 C         2.516727         2.398378        -0.988325
 C         1.314911         0.647202         0.613188
 O         0.372663        -0.055943         0.913792
 H         4.439044         3.766845        -2.972689
 H         1.114274         2.903568        -3.641611
 H         2.707771         2.717016        -4.514984
 H         3.252724         0.444421        -3.541847
 H         0.657090        -0.136822        -2.548582
 H         2.001266        -0.660391        -1.700601
 H         0.493468         1.746315        -0.916033
 H         1.979961         3.312474        -0.820526
 H         3.263503         2.387466        -0.242161
 H         2.242899         0.709592         1.244585
