19
Iteration:  3883charge 0 multiplicity 1
 O         4.285265         2.926223        -2.504399
 C         3.009132         2.450013        -2.413255
 C         2.141213         2.431324        -3.692877
 C         2.589648         1.138696        -3.112117
 C         1.880722         0.206864        -2.206441
 C         1.418783         1.166028        -0.864240
 C         2.457505         2.346267        -0.975889
 C         1.363911         0.407959         0.439829
 O         0.323850         0.320715         1.046219
 H         4.267149         3.888786        -2.552944
 H         1.105711         2.678222        -3.942794
 H         2.829159         2.686830        -4.565900
 H         3.361928         0.828761        -3.883605
 H         0.908960        -0.229577        -2.504305
 H         2.526877        -0.548265        -1.741304
 H         0.537956         1.570062        -1.148106
 H         2.142199         3.325755        -0.501582
 H         3.393513         1.937191        -0.526817
 H         2.358294         0.149488         0.936034
