19
Iteration:  3690charge 0 multiplicity 1
 O         4.302750         3.063017        -2.444558
 C         3.061552         2.396286        -2.352220
 C         2.074993         2.416504        -3.535227
 C         2.664146         1.130990        -3.141881
 C         1.832097         0.127989        -2.247504
 C         1.469435         1.096051        -1.031420
 C         2.479778         2.267448        -0.998219
 C         1.275017         0.417481         0.336244
 O         0.377181         0.481219         1.142884
 H         4.258968         3.721076        -3.141066
 H         0.992967         2.615142        -3.311060
 H         2.402408         2.820599        -4.525491
 H         3.256599         0.707137        -3.989169
 H         0.939935        -0.415114        -2.629218
 H         2.555318        -0.696251        -1.872094
 H         0.356026         1.510996        -1.204803
 H         2.124814         3.242012        -0.542777
 H         3.406408         1.968447        -0.508885
 H         2.060660        -0.397779         0.539619
