19
Iteration:  1891
 O         4.232886         3.005010        -2.486694
 C         3.032332         2.465750        -2.410307
 C         2.165469         2.593462        -3.535945
 C         2.584233         1.235263        -3.102572
 C         1.734645         0.320545        -2.304894
 C         1.412334         1.116111        -1.027035
 C         2.552339         2.138975        -0.925799
 C         1.341232         0.293092         0.334649
 O         0.415750         0.358168         1.178106
 H         4.726704         2.587143        -3.240511
 H         1.083798         2.740554        -3.465384
 H         2.622332         2.858988        -4.435204
 H         3.295932         0.659024        -3.729679
 H         0.922072        -0.005858        -2.918868
 H         2.386073        -0.521434        -2.188185
 H         0.345893         1.540559        -0.982871
 H         2.337375         2.991048        -0.243418
 H         3.379905         1.669832        -0.419663
 H         2.161055        -0.268936         0.568539
