19
Iteration:  3538charge 0 multiplicity 1
 O         4.357130         2.928058        -2.549011
 C         3.033356         2.367581        -2.404712
 C         2.070945         2.426169        -3.536267
 C         2.693824         1.066337        -3.077382
 C         1.782730         0.280260        -2.145362
 C         1.378767         1.300284        -0.896073
 C         2.481066         2.398872        -0.961510
 C         1.365813         0.522003         0.366289
 O         0.349825         0.138521         0.944040
 H         4.115639         3.733555        -2.982230
 H         0.998622         2.690054        -3.324091
 H         2.447395         2.577268        -4.563484
 H         3.347853         0.707513        -3.808990
 H         0.811438        -0.119367        -2.517782
 H         2.395685        -0.491410        -1.725387
 H         0.439790         1.640409        -1.139737
 H         2.179310         3.389345        -0.533901
 H         3.457884         2.009476        -0.410572
 H         2.333461         0.459026         0.879513
