19
Iteration:   211charge 0 multiplicity 1
 O         4.264784         2.836761        -2.195233
 C         2.976339         2.323936        -2.338746
 C         2.099427         2.606893        -3.524439
 C         2.602094         1.169466        -3.205922
 C         1.834973         0.189862        -2.311871
 C         1.255008         1.045116        -1.120734
 C         2.221175         2.253359        -0.984577
 C         1.474882         0.496225         0.233751
 O         0.695206         0.488325         1.139813
 H         4.628672         3.196623        -3.005823
 H         0.986472         2.983963        -3.638882
 H         2.546125         2.921197        -4.508916
 H         3.221830         0.716637        -3.999805
 H         1.178388        -0.498927        -2.807905
 H         2.567106        -0.448669        -1.835819
 H         0.287080         1.440254        -1.245021
 H         1.662705         3.180630        -0.804419
 H         2.913195         2.266572        -0.150665
 H         2.601492         0.030794         0.267460
