19
Iteration:  3488charge 0 multiplicity 1
 O         4.394716         2.852465        -2.599821
 C         3.017833         2.484656        -2.388966
 C         2.064958         2.359038        -3.564287
 C         2.640139         1.091761        -2.959111
 C         1.775007         0.314111        -2.063019
 C         1.335355         1.339650        -0.923731
 C         2.490432         2.450094        -0.997254
 C         1.395891         0.522150         0.368314
 O         0.384940         0.071960         0.873299
 H         4.427927         3.843039        -2.528479
 H         0.977708         2.643060        -3.299429
 H         2.399482         2.755893        -4.504351
 H         3.296871         0.449440        -3.637812
 H         0.870115        -0.037688        -2.583616
 H         2.409769        -0.526579        -1.607401
 H         0.217384         1.707591        -1.205050
 H         2.208758         3.486859        -0.725730
 H         3.216900         2.103389        -0.277940
 H         2.383486         0.044665         0.659685
