19
Iteration:  2931
 O         4.336207         3.052252        -2.506873
 C         3.072322         2.367886        -2.461160
 C         1.997433         2.485653        -3.489510
 C         2.593052         1.150780        -3.128533
 C         1.879600         0.204430        -2.150611
 C         1.520520         1.144260        -0.885849
 C         2.558433         2.265840        -0.971646
 C         1.300303         0.407207         0.395692
 O         0.241488         0.328053         0.969710
 H         4.726673         3.475004        -3.283248
 H         0.979999         2.806461        -3.364631
 H         2.318534         2.661001        -4.564001
 H         3.158236         0.630624        -3.970022
 H         1.000689        -0.413629        -2.347016
 H         2.663956        -0.498739        -1.896450
 H         0.468460         1.558201        -1.129889
 H         2.134382         3.315943        -0.659877
 H         3.516297         2.083056        -0.396560
 H         2.239365        -0.004659         0.844817
