19
Iteration:   750charge 0 multiplicity 1
 O         4.337411         3.067596        -2.664803
 C         3.121898         2.380163        -2.355521
 C         2.046920         2.573303        -3.265709
 C         2.591383         1.176603        -3.184445
 C         1.733146         0.218803        -2.270233
 C         1.454712         1.115775        -1.023299
 C         2.582896         2.165072        -0.947918
 C         1.286945         0.295875         0.334759
 O         0.367909         0.374654         1.058323
 H         4.196532         3.929257        -2.304907
 H         1.091967         2.714446        -2.963365
 H         2.317191         3.070499        -4.128413
 H         3.076928         0.612869        -3.955590
 H         0.763091        -0.246777        -2.622827
 H         2.541254        -0.539122        -2.101738
 H         0.596996         1.700359        -1.139668
 H         2.236661         3.128032        -0.533820
 H         3.473519         1.881150        -0.259652
 H         2.123077        -0.423657         0.590633
