19
Iteration:  3828
 O         4.283859         2.886743        -2.539850
 C         3.044359         2.346762        -2.289508
 C         2.037534         2.360931        -3.485201
 C         2.770671         1.059385        -3.042618
 C         1.851076         0.254912        -2.197668
 C         1.313260         1.221583        -1.102742
 C         2.346235         2.357438        -0.900952
 C         1.363284         0.499533         0.181494
 O         0.518327         0.401627         1.047758
 H         4.296729         3.802241        -2.305881
 H         1.002401         2.343844        -3.192329
 H         2.277250         3.059778        -4.307065
 H         3.412060         0.579935        -3.779324
 H         0.958975        -0.216380        -2.656893
 H         2.323006        -0.607006        -1.698101
 H         0.424476         1.567889        -1.450781
 H         1.908040         3.402999        -0.684260
 H         3.040674         2.304387         0.057249
 H         2.326104        -0.052724         0.269788
