19
Iteration:  4275charge 0 multiplicity 1
 O         4.353936         3.074065        -2.554810
 C         3.074027         2.360154        -2.389848
 C         2.060942         2.439617        -3.556266
 C         2.682612         1.114033        -3.181537
 C         1.884584         0.145384        -2.195181
 C         1.387607         1.100411        -0.978086
 C         2.448664         2.253039        -0.971357
 C         1.259756         0.375767         0.346319
 O         0.345953         0.465040         1.169413
 H         4.195836         4.039364        -2.661300
 H         1.058337         2.739651        -3.400802
 H         2.481947         2.930953        -4.458355
 H         3.384797         0.691563        -3.881050
 H         1.036482        -0.237601        -2.736043
 H         2.534397        -0.608857        -1.731948
 H         0.457500         1.511847        -1.306255
 H         2.101947         3.176791        -0.561611
 H         3.297480         1.969244        -0.270352
 H         2.189551        -0.288529         0.624205
