19
Iteration:  4995charge 0 multiplicity 1
 O         4.365992         2.941962        -2.552493
 C         2.984117         2.367530        -2.371721
 C         2.042265         2.387589        -3.575420
 C         2.607847         1.143352        -3.138826
 C         1.943724         0.209560        -2.071915
 C         1.423249         1.137972        -0.985271
 C         2.472433         2.306984        -1.000538
 C         1.285350         0.628725         0.382953
 O         0.332931         0.276741         1.039307
 H         4.248716         3.875671        -2.664842
 H         0.995671         2.737662        -3.435197
 H         2.450136         2.648343        -4.577542
 H         3.346416         0.533970        -3.724986
 H         1.270555        -0.364038        -2.722410
 H         2.858646        -0.322926        -1.816976
 H         0.455725         1.523726        -1.272150
 H         2.063715         3.293090        -0.654818
 H         3.296852         2.011253        -0.315118
 H         2.234364         0.386840         0.860203
