19
Iteration:  4648charge 0 multiplicity 1
 O         4.343873         2.912110        -2.693987
 C         3.048067         2.408416        -2.311814
 C         1.970936         2.361986        -3.370055
 C         2.672600         1.074413        -3.065505
 C         1.903245         0.203980        -2.093714
 C         1.397447         1.208373        -1.007572
 C         2.514829         2.352358        -0.923040
 C         1.357623         0.561629         0.332105
 O         0.317272         0.326061         0.872702
 H         4.263926         3.840206        -2.908322
 H         0.891189         2.513760        -3.039810
 H         2.349566         2.826877        -4.273088
 H         3.446717         0.711323        -3.605477
 H         1.027461        -0.306934        -2.499205
 H         2.626464        -0.441395        -1.695733
 H         0.400234         1.631096        -1.228929
 H         1.938575         3.121041        -0.503578
 H         3.268835         1.976570        -0.185088
 H         2.347219         0.267836         0.679206
