19
Iteration:  3663
 O         4.284575         3.028518        -2.536439
 C         3.029612         2.371483        -2.394205
 C         2.111213         2.509550        -3.700166
 C         2.630245         1.200825        -3.149352
 C         1.873982         0.215826        -2.154362
 C         1.455602         1.052558        -0.952524
 C         2.491691         2.133076        -0.962994
 C         1.294226         0.376128         0.414088
 O         0.316226         0.459944         1.123394
 H         4.188008         3.945004        -2.764191
 H         1.125049         2.886270        -3.650032
 H         2.688119         2.957499        -4.509122
 H         3.363065         0.724228        -3.827297
 H         1.088298        -0.430449        -2.534178
 H         2.636618        -0.481723        -1.788506
 H         0.429091         1.455479        -1.030745
 H         2.171497         3.111614        -0.601242
 H         3.419068         1.979508        -0.365414
 H         2.149165        -0.265669         0.810999
