19
Iteration:   887charge 0 multiplicity 1
 O         4.297754         2.792010        -2.465016
 C         2.958036         2.362489        -2.423413
 C         2.052388         2.666722        -3.572702
 C         2.523122         1.141805        -3.172118
 C         1.706502         0.342110        -2.099818
 C         1.402658         1.300748        -0.923202
 C         2.605663         2.372028        -0.955593
 C         1.447288         0.426763         0.343405
 O         0.465864         0.099196         0.925291
 H         4.393936         3.600843        -1.875812
 H         0.938762         2.915156        -3.551244
 H         2.613157         2.979306        -4.498837
 H         3.056927         0.547684        -3.845167
 H         0.820456        -0.168080        -2.493215
 H         2.430938        -0.464144        -1.768300
 H         0.420127         1.915179        -0.973106
 H         2.351743         3.321859        -0.384821
 H         3.465802         1.848239        -0.411291
 H         2.456628        -0.109247         0.408102
