19
Iteration:  1619
 O         4.378626         2.716492        -2.611492
 C         3.028035         2.429091        -2.353639
 C         2.027231         2.604793        -3.501642
 C         2.498722         1.242908        -3.153332
 C         1.609750         0.448105        -2.113729
 C         1.450595         1.378548        -0.955172
 C         2.591791         2.334929        -0.880019
 C         1.446851         0.385350         0.352902
 O         0.431345        -0.043651         0.905411
 H         4.547161         3.665692        -2.332639
 H         1.019187         2.791455        -3.342695
 H         2.451529         3.004468        -4.393558
 H         3.171901         0.895536        -3.965890
 H         0.700591        -0.040198        -2.415614
 H         2.340933        -0.354087        -1.744684
 H         0.438366         1.767982        -1.088782
 H         2.339319         3.341387        -0.568852
 H         3.298836         1.840695        -0.131342
 H         2.413487         0.425056         0.861936
