19
Iteration:  1362charge 0 multiplicity 1
 O         4.286502         2.898672        -2.544475
 C         3.017080         2.398461        -2.343097
 C         1.956461         2.572707        -3.460517
 C         2.553154         1.242889        -3.153346
 C         1.784433         0.281463        -2.272991
 C         1.362770         1.134989        -0.973664
 C         2.607566         2.287858        -0.871285
 C         1.381570         0.292349         0.247711
 O         0.483408         0.351390         1.005247
 H         4.871818         2.673201        -1.766535
 H         0.986025         2.896309        -2.968157
 H         2.251931         3.264202        -4.283132
 H         3.107773         1.018608        -4.039061
 H         0.884193        -0.232337        -2.606618
 H         2.571664        -0.568729        -1.919481
 H         0.463216         1.735812        -1.133690
 H         2.367609         3.320055        -0.485363
 H         3.397607         1.726927        -0.251024
 H         2.335503        -0.353846         0.334454
