19
Iteration:  2035
 O         4.329441         3.013629        -2.392722
 C         3.055210         2.402595        -2.419488
 C         2.136866         2.537242        -3.599529
 C         2.606532         1.073730        -3.149721
 C         1.597393         0.301185        -2.150618
 C         1.377581         1.223431        -0.937316
 C         2.409559         2.314729        -0.951631
 C         1.433861         0.382935         0.289796
 O         0.503234         0.237828         1.018524
 H         5.032376         2.737488        -3.034207
 H         1.044520         2.797407        -3.479950
 H         2.518755         2.790852        -4.672406
 H         3.259512         0.564198        -3.860726
 H         0.691770        -0.047764        -2.584093
 H         2.127178        -0.510215        -1.661107
 H         0.308639         1.669195        -1.023033
 H         2.149538         3.299237        -0.505123
 H         3.290933         2.008584        -0.219359
 H         2.366350        -0.150382         0.389953
