19
Iteration:   268
 O         4.188545         3.015865        -2.452233
 C         2.952889         2.421308        -2.368945
 C         2.067338         2.480401        -3.585767
 C         2.749124         1.204013        -3.116460
 C         1.777020         0.311920        -2.282082
 C         1.465464         1.064428        -0.967832
 C         2.416838         2.239043        -0.930011
 C         1.334281         0.194114         0.285431
 O         0.513504         0.506766         1.105580
 H         4.797145         2.541850        -3.067062
 H         0.934859         2.506597        -3.308559
 H         2.745235         3.056400        -4.323264
 H         3.617634         0.656988        -3.433784
 H         0.818859         0.128040        -2.817357
 H         2.276050        -0.625757        -2.136627
 H         0.499596         1.564399        -1.072432
 H         2.016461         3.243551        -0.588646
 H         3.320723         2.077865        -0.311255
 H         2.097306        -0.475249         0.533659
