19
Iteration:  1249charge 0 multiplicity 1
 O         4.308604         2.959242        -2.461471
 C         3.080421         2.278448        -2.395044
 C         2.061613         2.609246        -3.359832
 C         2.565574         1.114925        -3.185985
 C         1.784756         0.330227        -2.215043
 C         1.310757         1.314896        -1.053839
 C         2.554008         2.308268        -0.915726
 C         1.299610         0.330106         0.252668
 O         0.495693         0.200229         1.109260
 H         4.346555         3.519237        -3.297437
 H         1.130973         2.958476        -3.101784
 H         2.467884         2.782471        -4.370682
 H         3.165000         0.679916        -4.022079
 H         0.856971        -0.049067        -2.748592
 H         2.360723        -0.587180        -2.050844
 H         0.361930         1.609674        -1.393088
 H         2.348849         3.306222        -0.567571
 H         3.348811         1.811400        -0.343505
 H         2.378816        -0.011435         0.351898
