19
Iteration:  4479charge 0 multiplicity 1
 O         4.335821         2.866313        -2.502457
 C         2.978995         2.448432        -2.441971
 C         2.108518         2.427988        -3.630118
 C         2.621149         1.091337        -3.076785
 C         1.820524         0.207274        -2.186929
 C         1.428887         1.260987        -0.973131
 C         2.502023         2.400524        -0.960041
 C         1.339563         0.540287         0.395257
 O         0.367110         0.181308         1.051820
 H         4.350232         3.796603        -2.771685
 H         1.119373         2.857024        -3.529950
 H         2.463651         2.672687        -4.558245
 H         3.404067         0.521595        -3.533607
 H         0.919966        -0.105595        -2.686331
 H         2.326218        -0.590407        -1.720224
 H         0.376965         1.497609        -1.094899
 H         1.934458         3.275271        -0.499344
 H         3.374366         2.246710        -0.305843
 H         2.403197         0.542750         0.729706
