19
Iteration:  1473
 O         4.443948         2.887686        -2.608206
 C         3.020075         2.427511        -2.422334
 C         1.903988         2.707333        -3.422093
 C         2.527195         1.231052        -3.104108
 C         1.751414         0.273483        -2.283440
 C         1.523747         1.116464        -0.947101
 C         2.586303         2.192330        -0.835946
 C         1.404646         0.262312         0.343415
 O         0.332969         0.300305         0.981907
 H         4.287855         3.807179        -2.796035
 H         0.965163         2.980531        -2.956145
 H         2.195396         3.092206        -4.413188
 H         3.152762         0.694653        -3.840985
 H         0.776376        -0.094408        -2.492124
 H         2.560773        -0.522415        -2.033465
 H         0.477008         1.603615        -0.949458
 H         2.271441         3.227269        -0.485472
 H         3.491544         2.088265        -0.133185
 H         2.300364        -0.408639         0.509623
