19
Iteration:  1155charge 0 multiplicity 1
 O         4.365478         2.961022        -2.648613
 C         3.096648         2.375971        -2.400704
 C         1.959107         2.644634        -3.360154
 C         2.552641         1.205899        -3.092716
 C         1.832535         0.298803        -2.149850
 C         1.364986         1.170421        -0.971728
 C         2.627739         2.136963        -0.982883
 C         1.302646         0.405330         0.291540
 O         0.371164         0.207179         0.978095
 H         4.406292         3.677457        -2.017676
 H         0.961023         2.983620        -3.059026
 H         2.360187         2.955671        -4.402772
 H         3.195914         0.928577        -3.862118
 H         1.049382        -0.341845        -2.527295
 H         2.548501        -0.456254        -1.664823
 H         0.399305         1.796500        -1.019587
 H         2.260848         3.192420        -0.802247
 H         3.385122         1.772999        -0.204629
 H         2.325776        -0.054902         0.610727
