19
Iteration:  4004
 O         4.310325         2.958226        -2.705866
 C         2.991417         2.435534        -2.393024
 C         2.036367         2.382156        -3.487274
 C         2.684384         1.107339        -3.047182
 C         1.885047         0.242378        -2.084002
 C         1.468803         1.242673        -0.944015
 C         2.612988         2.289787        -0.943694
 C         1.293619         0.588858         0.453723
 O         0.223711         0.162398         0.910117
 H         4.257832         3.806462        -2.286091
 H         0.970556         2.882726        -3.345953
 H         2.476523         2.724631        -4.430664
 H         3.423900         0.777578        -3.832219
 H         1.019796        -0.269390        -2.653290
 H         2.558226        -0.649827        -1.732222
 H         0.484701         1.592312        -1.158895
 H         2.377260         3.363710        -0.725697
 H         3.533592         1.919416        -0.513673
 H         2.189974         0.457644         1.083337
