19
Iteration:  1305
 O         4.286546         2.960161        -2.436498
 C         2.972771         2.387972        -2.364809
 C         2.057664         2.660193        -3.483952
 C         2.605281         1.163123        -3.188243
 C         1.715969         0.321973        -2.307993
 C         1.466210         1.119505        -0.951497
 C         2.519147         2.218143        -0.964178
 C         1.395471         0.350951         0.371144
 O         0.458675         0.295761         1.064054
 H         4.757935         2.505180        -3.118334
 H         0.944327         2.772310        -3.371554
 H         2.416957         3.301101        -4.285867
 H         3.269615         0.688786        -3.898885
 H         0.715253         0.033283        -2.754035
 H         2.368773        -0.631339        -2.218303
 H         0.558393         1.670632        -1.125510
 H         2.083112         3.128940        -0.559021
 H         3.409154         2.050995        -0.293706
 H         2.277790        -0.265469         0.602018
