19
Iteration:  2869charge 0 multiplicity 1
 O         4.360669         2.945425        -2.627676
 C         3.077748         2.395427        -2.444067
 C         2.109069         2.450027        -3.567072
 C         2.627018         1.078819        -3.049669
 C         1.715168         0.378543        -2.027266
 C         1.455906         1.339979        -0.846557
 C         2.540849         2.420192        -0.929915
 C         1.307273         0.529576         0.389671
 O         0.309973        -0.013186         0.895465
 H         4.424207         3.395137        -3.472801
 H         1.015666         2.474660        -3.387570
 H         2.545922         2.633279        -4.609792
 H         3.502685         0.621222        -3.643680
 H         0.719640        -0.143603        -2.429301
 H         2.275165        -0.601591        -1.805439
 H         0.481802         1.802143        -1.030304
 H         2.229038         3.377212        -0.529934
 H         3.327095         1.992372        -0.286287
 H         2.266130         0.424178         0.941574
