19
Iteration:  4837charge 0 multiplicity 1
 O         4.349164         2.905702        -2.417328
 C         2.984884         2.382961        -2.318112
 C         2.067590         2.429498        -3.539444
 C         2.680047         1.067567        -3.131828
 C         1.933134         0.192576        -2.230753
 C         1.376236         1.105998        -1.134501
 C         2.269782         2.327796        -1.026073
 C         1.342814         0.465359         0.277382
 O         0.498965         0.519982         1.176787
 H         4.134790         3.882856        -2.374104
 H         1.015200         2.681363        -3.376317
 H         2.463250         2.704249        -4.546851
 H         3.441112         0.631432        -3.814518
 H         1.102344        -0.482451        -2.680385
 H         2.636044        -0.536500        -1.875477
 H         0.321294         1.460061        -1.249043
 H         1.610302         3.201361        -0.843943
 H         3.089540         2.221301        -0.275660
 H         2.283704        -0.223676         0.467015
