19
Iteration:   485
 O         4.468963         2.923188        -2.667915
 C         3.126544         2.414794        -2.421861
 C         2.141959         2.545896        -3.505061
 C         2.524913         1.152090        -3.071215
 C         1.634362         0.320281        -2.109726
 C         1.374995         1.316109        -0.926436
 C         2.501009         2.486222        -0.957013
 C         1.333991         0.508276         0.515008
 O         0.392520        -0.157609         0.966145
 H         4.409206         3.452589        -3.470704
 H         1.075598         2.924238        -3.426360
 H         2.522939         2.832553        -4.498229
 H         2.979998         0.654040        -3.920876
 H         0.749859        -0.164364        -2.526700
 H         2.254565        -0.612373        -1.776321
 H         0.417705         1.799727        -1.028994
 H         2.046358         3.447285        -0.781773
 H         3.304783         2.097574        -0.282490
 H         2.323765         0.388634         0.992749
