19
Iteration:  2894charge 0 multiplicity 1
 O         4.274226         2.975888        -2.519371
 C         3.058796         2.381325        -2.378996
 C         2.002007         2.344920        -3.445998
 C         2.676469         1.078896        -3.005987
 C         1.713636         0.245124        -2.105888
 C         1.379206         1.347583        -0.944055
 C         2.622949         2.267283        -0.928103
 C         1.333744         0.645452         0.279160
 O         0.416337         0.168285         0.813055
 H         4.359868         3.394660        -3.367825
 H         0.944673         2.601868        -3.125500
 H         2.487366         2.816494        -4.276301
 H         3.319676         0.740681        -3.763396
 H         0.970142        -0.292548        -2.699478
 H         2.356848        -0.602513        -1.657364
 H         0.452659         1.866938        -1.019907
 H         2.431026         3.186210        -0.434799
 H         3.338193         1.753279        -0.350248
 H         2.361491         0.505915         0.685527
