19
Iteration:  3496charge 0 multiplicity 1
 O         4.362225         2.888656        -2.609600
 C         3.088444         2.402117        -2.372259
 C         2.066884         2.346071        -3.488244
 C         2.638033         1.053209        -2.969459
 C         1.791924         0.299446        -2.031153
 C         1.292832         1.372529        -0.947533
 C         2.447435         2.473627        -0.992027
 C         1.415705         0.489419         0.293255
 O         0.406079         0.122992         0.832805
 H         4.378580         3.855550        -2.522970
 H         1.086322         2.756421        -3.063541
 H         2.290315         2.692184        -4.531989
 H         3.211558         0.533525        -3.686016
 H         1.017170        -0.106568        -2.723177
 H         2.176127        -0.581145        -1.550901
 H         0.318035         1.735268        -0.825303
 H         2.243207         3.434873        -0.633981
 H         3.096008         2.015185        -0.244548
 H         2.513392         0.239876         0.624416
