19
Iteration:  4482charge 0 multiplicity 1
 O         4.334194         2.861602        -2.490233
 C         2.993419         2.458162        -2.449634
 C         2.099503         2.422312        -3.637914
 C         2.593976         1.093724        -3.082397
 C         1.814303         0.234575        -2.190573
 C         1.414758         1.241810        -0.955351
 C         2.517257         2.424691        -0.963937
 C         1.361130         0.535105         0.416027
 O         0.359923         0.178420         1.043735
 H         4.408078         3.776996        -2.773936
 H         1.034634         2.826930        -3.630871
 H         2.566434         2.711459        -4.601786
 H         3.515447         0.420373        -3.570032
 H         0.899775        -0.165940        -2.651365
 H         2.459808        -0.574123        -1.728656
 H         0.279047         1.482426        -1.178925
 H         1.952757         3.203868        -0.502131
 H         3.391540         2.246658        -0.325802
 H         2.368180         0.506403         0.808957
