19
Iteration:  3406
 O         4.384331         2.825179        -2.551648
 C         3.023306         2.360018        -2.315140
 C         1.966278         2.382632        -3.367899
 C         2.632909         1.099082        -3.106482
 C         1.851539         0.248624        -2.106615
 C         1.382679         1.465232        -0.997802
 C         2.489698         2.392453        -1.000295
 C         1.366794         0.620038         0.312189
 O         0.409815         0.077182         0.854699
 H         4.261660         3.750886        -2.682109
 H         0.942785         2.405080        -3.066032
 H         2.174207         2.858331        -4.327879
 H         3.391244         0.598302        -3.790569
 H         0.969896        -0.291823        -2.540727
 H         2.318552        -0.487704        -1.472771
 H         0.419896         1.740237        -1.248359
 H         2.192026         3.425607        -0.957990
 H         3.217012         2.174177        -0.203538
 H         2.367565         0.567945         0.753742
