19
Iteration:  2068
 O         4.348617         2.867319        -2.526104
 C         3.077998         2.346995        -2.288731
 C         1.985813         2.478512        -3.439573
 C         2.738682         1.142698        -3.128582
 C         1.726718         0.307459        -2.274875
 C         1.337886         1.282714        -1.028437
 C         2.465891         2.360241        -0.846598
 C         1.358977         0.527171         0.288242
 O         0.486432         0.176738         1.005037
 H         4.477625         3.350324        -3.386842
 H         0.838208         2.402916        -3.312401
 H         2.271193         2.892956        -4.487505
 H         3.440553         0.652209        -3.845137
 H         0.821661        -0.003763        -2.746388
 H         2.072665        -0.622276        -1.804346
 H         0.300730         1.852192        -1.142612
 H         1.937504         3.301424        -0.526741
 H         3.267738         1.921093        -0.063035
 H         2.430749         0.201963         0.613591
