19
Iteration:  1002charge 0 multiplicity 1
 O         4.332320         2.920142        -2.449478
 C         3.121487         2.330110        -2.478312
 C         2.005254         2.660733        -3.417102
 C         2.517419         1.138037        -3.195297
 C         1.691653         0.258147        -2.149843
 C         1.455802         1.286350        -0.836186
 C         2.627735         2.339576        -1.029849
 C         1.423206         0.377620         0.447541
 O         0.346964         0.094725         0.875235
 H         4.523487         3.532442        -3.225014
 H         0.992237         3.073876        -3.149062
 H         2.405295         3.105690        -4.313841
 H         2.870120         0.759521        -4.188110
 H         0.773763        -0.196047        -2.667530
 H         2.343042        -0.506227        -1.731338
 H         0.448974         1.748994        -0.909966
 H         2.289338         3.353285        -0.795143
 H         3.483951         2.185786        -0.399385
 H         2.406501         0.013042         0.812977
