19
Iteration:    88charge 0 multiplicity 1
 O         4.197504         3.038155        -2.327580
 C         2.973185         2.351035        -2.347084
 C         2.180698         2.468085        -3.634855
 C         2.663558         1.121262        -3.094375
 C         1.697338         0.211822        -2.354324
 C         1.410989         1.059322        -1.024793
 C         2.288741         2.361313        -1.016978
 C         1.466427         0.449476         0.323439
 O         0.577424         0.387817         1.176047
 H         4.836503         2.433586        -2.690656
 H         1.257449         2.876236        -3.875625
 H         2.895770         2.753945        -4.419706
 H         3.451136         0.646488        -3.717448
 H         0.741120         0.189417        -2.817283
 H         2.110892        -0.762071        -2.210229
 H         0.316634         1.259930        -1.140006
 H         1.671030         3.223899        -0.847852
 H         3.106823         2.261030        -0.330456
 H         2.557027         0.050498         0.610995
