19
Iteration:  1861
 O         4.289121         3.021845        -2.523414
 C         3.083805         2.354058        -2.333597
 C         1.942913         2.532610        -3.315602
 C         2.582678         1.157449        -3.140619
 C         1.735367         0.262039        -2.266873
 C         1.452400         1.207792        -1.055702
 C         2.615931         2.216513        -0.918175
 C         1.326344         0.362053         0.197034
 O         0.458174         0.392046         1.011947
 H         5.069265         2.616926        -2.133333
 H         0.815135         2.460181        -3.067380
 H         2.193145         3.142451        -4.243360
 H         3.183521         0.679950        -3.840962
 H         0.837218        -0.191191        -2.720371
 H         2.316657        -0.662018        -1.942034
 H         0.449986         1.703798        -1.141374
 H         2.205053         3.123949        -0.513497
 H         3.286394         1.817717        -0.133190
 H         2.329486        -0.403563         0.251852
