19
Iteration:  4160
 O         4.293742         2.837989        -2.545459
 C         3.008745         2.442654        -2.387535
 C         2.084471         2.434331        -3.609996
 C         2.728644         1.104972        -3.020551
 C         1.788502         0.218623        -2.112601
 C         1.337974         1.263129        -0.960409
 C         2.380622         2.415314        -0.974445
 C         1.452343         0.495415         0.351222
 O         0.414184         0.260170         0.990631
 H         4.310257         3.769542        -2.180585
 H         0.975415         2.558737        -3.589299
 H         2.678128         2.611230        -4.502682
 H         3.447846         0.582677        -3.742425
 H         0.978001        -0.062857        -2.817703
 H         2.436342        -0.664205        -1.736250
 H         0.237410         1.556911        -1.084522
 H         2.094367         3.439871        -0.607937
 H         3.242739         2.166354        -0.406061
 H         2.411445        -0.017751         0.451463
