19
Iteration:  4387charge 0 multiplicity 1
 O         4.354197         2.977291        -2.541929
 C         2.982554         2.368146        -2.375737
 C         2.042242         2.492130        -3.625488
 C         2.616405         1.160084        -3.196787
 C         1.968177         0.225278        -2.206012
 C         1.438908         1.032074        -1.000393
 C         2.469541         2.204807        -0.887804
 C         1.313932         0.451728         0.434331
 O         0.285543         0.442545         1.123979
 H         4.416854         3.953758        -2.671350
 H         0.901303         2.668985        -3.839396
 H         2.435333         3.014742        -4.520448
 H         3.396927         0.616971        -3.869349
 H         1.093538        -0.205440        -2.734769
 H         2.787915        -0.429465        -1.885258
 H         0.518609         1.518898        -1.260783
 H         2.128468         3.181894        -0.500051
 H         3.310201         1.894967        -0.197893
 H         2.303892        -0.135559         0.801421
