19
Iteration:  3693charge 0 multiplicity 1
 O         4.291906         3.054466        -2.435270
 C         3.073760         2.374923        -2.363319
 C         2.045359         2.403094        -3.522214
 C         2.663420         1.145724        -3.125027
 C         1.841277         0.145467        -2.249660
 C         1.458949         1.120825        -1.033575
 C         2.468784         2.244868        -0.997038
 C         1.299092         0.414791         0.313209
 O         0.380712         0.490061         1.134758
 H         4.255017         3.716871        -3.189668
 H         1.005707         2.592463        -3.261201
 H         2.382952         2.932692        -4.464894
 H         3.368989         0.631435        -3.883554
 H         0.963555        -0.392715        -2.729199
 H         2.480549        -0.619588        -1.768909
 H         0.482634         1.472730        -1.190789
 H         2.104795         3.240128        -0.737442
 H         3.447273         1.923976        -0.397681
 H         2.054670        -0.389922         0.508078
