19
Iteration:  3574charge 0 multiplicity 1
 O         4.341278         2.895176        -2.567533
 C         2.932607         2.440557        -2.393078
 C         2.135857         2.514594        -3.650631
 C         2.596060         1.109358        -3.134954
 C         1.907657         0.243143        -2.175307
 C         1.476038         1.192034        -0.911398
 C         2.519156         2.399520        -0.931582
 C         1.295053         0.465861         0.454388
 O         0.274745         0.185151         1.047109
 H         4.261788         3.797455        -2.833562
 H         1.027014         2.887340        -3.630333
 H         2.592320         2.585168        -4.652183
 H         3.353943         0.668827        -3.917167
 H         1.007214        -0.363271        -2.410130
 H         2.619144        -0.523772        -1.876349
 H         0.451459         1.583533        -1.078296
 H         2.286572         3.390916        -0.574332
 H         3.421708         2.023819        -0.349605
 H         2.282892         0.285206         0.896449
