19
Iteration:  4045
 O         4.314128         2.917139        -2.598486
 C         3.071665         2.374894        -2.393866
 C         1.944884         2.379255        -3.416468
 C         2.592006         1.040782        -2.997522
 C         1.906238         0.190965        -2.040127
 C         1.415940         1.335348        -0.950806
 C         2.553073         2.413509        -1.030661
 C         1.367135         0.555286         0.284557
 O         0.324433         0.201230         0.815500
 H         4.406784         3.800423        -2.132219
 H         0.945033         2.708473        -2.965456
 H         2.359631         2.559799        -4.377343
 H         3.370515         0.637987        -3.804269
 H         1.040195        -0.400753        -2.522566
 H         2.653295        -0.427350        -1.568858
 H         0.462779         1.875843        -1.175008
 H         2.166132         3.336879        -0.645398
 H         3.324135         2.153410        -0.271693
 H         2.354661         0.380691         0.849589
