19
Iteration:   677charge 0 multiplicity 1
 O         4.321648         2.981237        -2.513770
 C         3.025093         2.384499        -2.364827
 C         1.939368         2.654737        -3.356660
 C         2.560134         1.257514        -3.164733
 C         1.911564         0.243435        -2.293106
 C         1.462855         1.060429        -1.076749
 C         2.578861         2.073090        -0.934429
 C         1.322996         0.431322         0.346320
 O         0.377139         0.364456         1.102793
 H         4.449190         3.137953        -3.481677
 H         0.831114         3.069537        -3.161528
 H         2.367836         2.876852        -4.379664
 H         3.198984         0.921476        -3.979504
 H         1.091946        -0.276153        -2.843749
 H         2.591434        -0.492231        -1.879636
 H         0.437068         1.584609        -1.303753
 H         2.192305         2.912487        -0.253261
 H         3.274406         1.440069        -0.410720
 H         2.289540         0.047039         0.741633
