19
Iteration:  3682
 O         4.327275         3.068791        -2.458657
 C         3.010038         2.454384        -2.421794
 C         2.118754         2.488816        -3.557965
 C         2.639970         1.051304        -3.170661
 C         1.868884         0.120668        -2.206755
 C         1.425224         1.051928        -1.013079
 C         2.504628         2.310608        -0.973846
 C         1.268086         0.368113         0.367545
 O         0.343096         0.479721         1.167979
 H         4.216477         3.814341        -3.084982
 H         1.055950         2.741866        -3.479551
 H         2.508434         2.601925        -4.612299
 H         3.211314         0.723131        -4.117389
 H         0.879986        -0.315578        -2.567099
 H         2.577067        -0.704527        -2.122066
 H         0.542081         1.519984        -1.296412
 H         2.146140         3.031270        -0.256380
 H         3.466615         1.933649        -0.352548
 H         2.157163        -0.255131         0.604623
