19
Iteration:  3437charge 0 multiplicity 1
 O         4.441577         2.873207        -2.566734
 C         3.041731         2.429833        -2.411612
 C         2.114964         2.542871        -3.585716
 C         2.538785         1.132846        -3.104251
 C         1.784136         0.210010        -2.045245
 C         1.412422         1.236066        -0.905477
 C         2.424773         2.325513        -1.060322
 C         1.346798         0.627048         0.462534
 O         0.383258         0.045781         0.904472
 H         4.329863         3.868742        -2.701732
 H         1.103476         2.861543        -3.454462
 H         2.491811         2.801838        -4.541776
 H         3.311235         0.576043        -3.761258
 H         0.904575        -0.241574        -2.513694
 H         2.460087        -0.472618        -1.530654
 H         0.399659         1.625006        -1.019668
 H         1.936803         3.367147        -0.761386
 H         3.251474         2.051405        -0.318129
 H         2.169654         0.800911         1.326751
