19
Iteration:  2856
 O         4.381721         2.898349        -2.630386
 C         3.066606         2.417118        -2.420362
 C         2.126138         2.412744        -3.637667
 C         2.612087         1.125194        -3.056395
 C         1.755637         0.314589        -2.069756
 C         1.401675         1.373832        -0.778264
 C         2.586669         2.479749        -1.005204
 C         1.304384         0.454138         0.527608
 O         0.280886        -0.053870         0.878698
 H         4.307629         3.511199        -3.400716
 H         1.208561         2.942825        -3.491177
 H         2.578444         2.947667        -4.507200
 H         3.164422         0.419955        -3.740510
 H         0.767887        -0.021326        -2.589402
 H         2.365232        -0.418920        -1.512438
 H         0.382995         1.876015        -0.850653
 H         2.081539         3.519976        -0.884042
 H         3.523220         2.567335        -0.361584
 H         2.294683         0.204447         0.978252
