19
Iteration:  2648charge 0 multiplicity 1
 O         4.394391         2.831576        -2.647696
 C         3.003368         2.464230        -2.443183
 C         2.020835         2.486760        -3.553308
 C         2.630143         1.166224        -3.105450
 C         1.841897         0.251987        -2.162377
 C         1.492121         1.175420        -0.942405
 C         2.532466         2.370852        -0.919327
 C         1.338542         0.533840         0.571442
 O         0.260671         0.168433         0.925833
 H         4.328248         3.759535        -2.426534
 H         1.077092         2.879822        -3.362265
 H         2.291083         2.638068        -4.602356
 H         3.347667         0.853050        -3.846068
 H         0.836276        -0.154769        -2.647000
 H         2.522836        -0.557484        -1.783624
 H         0.491653         1.537508        -1.227679
 H         2.136266         3.179652        -0.337819
 H         3.390458         1.975623        -0.390178
 H         2.299213         0.495232         1.155852
