19
Iteration:  3948
 O         4.354103         3.018451        -2.574095
 C         3.086924         2.375174        -2.411545
 C         2.017911         2.451883        -3.426664
 C         2.607700         1.047750        -3.043678
 C         1.871266         0.149365        -1.967355
 C         1.498088         1.323470        -0.975197
 C         2.535510         2.339156        -0.970191
 C         1.298195         0.463119         0.239654
 O         0.284409         0.242596         0.916149
 H         4.203727         3.631974        -3.351960
 H         0.972884         2.615891        -3.007067
 H         2.157613         2.770069        -4.493883
 H         3.208219         0.555816        -3.915042
 H         0.871370        -0.245834        -2.343091
 H         2.589669        -0.670592        -1.670155
 H         0.519456         1.692575        -1.256300
 H         2.226195         3.369578        -0.872963
 H         3.326807         2.204597        -0.264949
 H         2.237620         0.106256         0.697523
