19
Iteration:  2992
 O         4.294185         3.026670        -2.405033
 C         3.064802         2.405420        -2.413304
 C         1.887001         2.430059        -3.372266
 C         2.692381         1.064182        -3.086497
 C         1.959459         0.155388        -2.194929
 C         1.392556         1.119811        -1.049464
 C         2.504536         2.216971        -0.993424
 C         1.267995         0.420401         0.193934
 O         0.418204         0.539198         0.999163
 H         4.479846         3.521342        -3.196441
 H         0.923140         2.603601        -2.936563
 H         2.242402         3.040306        -4.175461
 H         3.242206         0.767887        -3.918957
 H         1.080128        -0.460191        -2.373440
 H         2.761509        -0.471932        -1.683184
 H         0.456991         1.504855        -1.327699
 H         2.179797         3.092423        -0.539045
 H         3.350780         1.890364        -0.385796
 H         2.174127        -0.272977         0.358825
