19
Iteration:   736charge 0 multiplicity 1
 O         4.404686         3.054123        -2.575947
 C         3.123607         2.380220        -2.364395
 C         1.956865         2.628408        -3.320209
 C         2.419619         1.116400        -3.165629
 C         1.789895         0.138781        -2.192254
 C         1.527576         1.049514        -0.994358
 C         2.640281         2.259243        -0.916897
 C         1.309485         0.243530         0.222621
 O         0.369817         0.442409         0.996775
 H         4.220813         4.045570        -2.571104
 H         1.017606         3.106883        -2.807638
 H         2.238730         3.020011        -4.314033
 H         3.004714         0.854468        -4.039310
 H         0.892129        -0.285861        -2.593563
 H         2.377014        -0.716115        -1.836133
 H         0.572807         1.498402        -1.162492
 H         2.060287         3.117168        -0.589195
 H         3.428619         2.137482        -0.148188
 H         2.108952        -0.507777         0.432348
