19
Iteration:  3138
 O         4.282808         2.877047        -2.374372
 C         2.930178         2.452292        -2.339290
 C         2.130880         2.551075        -3.621584
 C         2.717178         1.187751        -3.173299
 C         1.919534         0.177495        -2.271404
 C         1.319916         0.949839        -1.096127
 C         2.287230         2.205274        -1.016655
 C         1.306116         0.279211         0.326460
 O         0.591311         0.692980         1.223520
 H         4.207637         3.842571        -2.561717
 H         1.018419         2.723142        -3.767894
 H         2.595173         2.847092        -4.566020
 H         3.620313         0.983490        -3.725855
 H         1.055049        -0.262532        -2.788889
 H         2.671044        -0.622525        -1.988470
 H         0.190407         1.243885        -1.265293
 H         1.710889         3.039072        -0.471403
 H         3.076149         2.043211        -0.310609
 H         2.057786        -0.576989         0.508604
