19
Iteration:  2587charge 0 multiplicity 1
 O         4.390325         2.996600        -2.552733
 C         3.070104         2.325418        -2.379806
 C         1.923174         2.438020        -3.389813
 C         2.608439         1.060403        -3.053123
 C         1.853935         0.253362        -2.035683
 C         1.365323         1.176664        -1.070707
 C         2.613809         2.280524        -1.000382
 C         1.324234         0.436478         0.227276
 O         0.384278         0.389765         0.938691
 H         4.133973         3.925415        -2.542240
 H         0.946976         2.766372        -2.921646
 H         2.239548         2.843703        -4.348593
 H         3.255921         0.715090        -3.803835
 H         1.027845        -0.196485        -2.398848
 H         2.341433        -0.522770        -1.480673
 H         0.391480         1.617473        -1.305904
 H         2.091988         3.206546        -0.695816
 H         3.398510         2.041998        -0.282743
 H         2.191427        -0.222686         0.360313
