19
Iteration:  1922
 O         4.346028         2.931276        -2.341706
 C         3.083737         2.407307        -2.478131
 C         2.099553         2.565489        -3.580980
 C         2.549146         1.174436        -3.274793
 C         1.737900         0.302582        -2.244330
 C         1.374874         1.143750        -0.948445
 C         2.472810         2.239180        -0.913733
 C         1.315588         0.339379         0.292467
 O         0.491108         0.331883         1.165791
 H         4.536824         3.605622        -3.005746
 H         1.081551         2.789089        -3.321246
 H         2.412676         2.974890        -4.468084
 H         3.173494         0.601719        -4.034655
 H         0.841848        -0.009004        -2.814020
 H         2.395266        -0.535339        -2.085958
 H         0.343768         1.555925        -1.012852
 H         2.058322         3.250895        -0.577324
 H         3.401515         1.904151        -0.250970
 H         2.275619        -0.405768         0.507396
