19
Iteration:  2308
 O         4.241717         2.811805        -2.502409
 C         2.906985         2.388963        -2.377727
 C         2.086426         2.532227        -3.708337
 C         2.616267         1.097961        -3.165680
 C         1.873613         0.279322        -2.162926
 C         1.500378         1.203274        -0.973481
 C         2.430211         2.363890        -0.897252
 C         1.372258         0.504761         0.330771
 O         0.399546         0.269304         1.074093
 H         4.495957         3.417366        -1.771847
 H         1.078425         2.827911        -3.743714
 H         2.789868         2.890531        -4.516659
 H         3.447700         0.658194        -3.690068
 H         0.963253        -0.385621        -2.404823
 H         2.663160        -0.485678        -1.757797
 H         0.561662         1.782724        -1.094895
 H         2.107677         3.343715        -0.538178
 H         3.400549         2.117820        -0.493257
 H         2.304234         0.092320         0.650707
