19
Iteration:  1677
 O         4.418290         2.888604        -2.650261
 C         3.095294         2.330165        -2.358869
 C         2.009800         2.613888        -3.428293
 C         2.468251         1.221726        -3.184205
 C         1.705651         0.361842        -2.177816
 C         1.415704         1.339122        -0.880469
 C         2.517688         2.369178        -0.947190
 C         1.415534         0.468471         0.409657
 O         0.404266        -0.036670         0.910701
 H         4.961808         2.304299        -2.102199
 H         1.064648         3.226088        -3.117151
 H         2.451067         3.066055        -4.359538
 H         3.022852         0.761441        -3.978230
 H         0.690882        -0.126452        -2.444113
 H         2.252910        -0.582360        -1.931789
 H         0.471773         1.764065        -1.108595
 H         2.222165         3.401155        -0.723179
 H         3.223155         2.004970        -0.158713
 H         2.458816         0.097896         0.886618
