19
Iteration:  1018charge 0 multiplicity 1
 O         4.365560         2.927007        -2.555119
 C         3.043120         2.358423        -2.318289
 C         2.039973         2.592127        -3.423862
 C         2.473454         1.181666        -3.182429
 C         1.767830         0.342084        -2.237579
 C         1.521107         1.204036        -0.900635
 C         2.580583         2.285208        -0.896101
 C         1.363226         0.476974         0.388950
 O         0.362988         0.101613         0.898630
 H         4.342118         3.196328        -3.508964
 H         1.061638         2.802904        -3.022409
 H         2.194585         3.130290        -4.401218
 H         3.295989         0.705729        -3.695623
 H         0.722649         0.029499        -2.402453
 H         2.266954        -0.658922        -2.210782
 H         0.544816         1.718390        -1.047637
 H         2.145677         3.263484        -0.566960
 H         3.460920         1.828919        -0.350969
 H         2.354033         0.240261         0.884369
