19
Iteration:   817
 O         4.404373         2.957348        -2.516971
 C         3.115925         2.290532        -2.383981
 C         2.028709         2.665758        -3.494104
 C         2.496013         1.139815        -3.145180
 C         1.738523         0.304540        -2.168231
 C         1.471356         1.186188        -0.931733
 C         2.495986         2.260351        -0.921960
 C         1.398098         0.328072         0.264924
 O         0.400300         0.255860         1.020616
 H         4.115775         3.893625        -2.751421
 H         1.039789         2.834749        -3.265846
 H         2.336836         3.012450        -4.494049
 H         2.800312         0.729976        -4.141722
 H         0.755735        -0.117305        -2.605682
 H         2.408176        -0.529748        -1.829179
 H         0.436056         1.565576        -1.054480
 H         2.098757         3.270527        -0.595195
 H         3.416304         2.086955        -0.207155
 H         2.305716        -0.259039         0.586424
