19
Iteration:   312
 O         4.213465         3.218280        -2.578686
 C         3.079742         2.350204        -2.376796
 C         2.026387         2.490868        -3.432234
 C         2.660016         1.064855        -3.139170
 C         1.813124         0.271152        -2.208358
 C         1.424576         1.176818        -1.032837
 C         2.620394         2.114831        -1.000178
 C         1.289005         0.385750         0.301397
 O         0.357057         0.363785         1.092831
 H         4.957820         2.900395        -1.999934
 H         0.955102         2.601560        -3.001460
 H         2.274565         2.882048        -4.469739
 H         3.321584         0.675445        -3.902644
 H         0.929492        -0.200000        -2.695658
 H         2.380029        -0.487857        -1.706317
 H         0.470184         1.685847        -1.210417
 H         2.388146         2.996537        -0.328908
 H         3.433052         1.651102        -0.437617
 H         2.310792        -0.249911         0.513594
