19
Iteration:  2401charge 0 multiplicity 1
 O         4.295604         2.988182        -2.277208
 C         2.999860         2.437778        -2.407123
 C         2.098641         2.436745        -3.591099
 C         2.643745         1.064677        -3.076203
 C         1.705456         0.259896        -2.197445
 C         1.348954         1.169246        -1.024033
 C         2.452686         2.318815        -1.080850
 C         1.387491         0.439631         0.261337
 O         0.539213         0.399111         1.105799
 H         4.551232         3.003454        -3.207310
 H         0.991482         2.538887        -3.608835
 H         2.601077         2.663650        -4.573040
 H         3.324224         0.544774        -3.771973
 H         0.838814        -0.104422        -2.752832
 H         2.248800        -0.734897        -1.867444
 H         0.289184         1.479569        -1.141143
 H         2.033219         3.166487        -0.545426
 H         3.287622         1.914735        -0.536494
 H         2.353625        -0.170240         0.481893
