19
Iteration:  3779
 O         4.281671         2.991505        -2.293135
 C         2.967393         2.329534        -2.451423
 C         2.140498         2.536187        -3.689695
 C         2.606918         1.100726        -3.285421
 C         1.853151         0.214943        -2.285240
 C         1.438305         1.041621        -0.982120
 C         2.473799         2.271800        -1.037177
 C         1.281798         0.376392         0.402563
 O         0.422320         0.470839         1.278961
 H         4.318336         3.711327        -2.988580
 H         1.064996         2.766823        -3.724559
 H         2.760070         2.855029        -4.577582
 H         3.565999         0.745728        -3.830529
 H         1.039480        -0.431750        -2.719065
 H         2.548033        -0.555517        -1.841612
 H         0.386692         1.564306        -1.229723
 H         2.002332         3.225711        -0.907543
 H         3.189692         2.380865        -0.322735
 H         2.230426        -0.106276         0.662763
