19
Iteration:  4962charge 0 multiplicity 1
 O         4.293557         2.915533        -2.531168
 C         3.042316         2.314058        -2.346803
 C         2.023843         2.351817        -3.468962
 C         2.734297         1.054706        -2.982570
 C         1.849937         0.282218        -2.139472
 C         1.333557         1.186108        -1.004341
 C         2.387695         2.401732        -1.006003
 C         1.427841         0.498156         0.299012
 O         0.429540         0.390624         0.942614
 H         4.171316         3.871761        -2.781796
 H         0.960877         2.473438        -3.244855
 H         2.384541         2.756460        -4.455458
 H         3.536522         0.700987        -3.705501
 H         1.098267        -0.364518        -2.740718
 H         2.435272        -0.679587        -1.900139
 H         0.344891         1.558150        -1.280716
 H         1.864263         3.367236        -0.760362
 H         3.153057         2.294589        -0.213264
 H         2.405442         0.064116         0.625517
