19
Iteration:  2527
 O         4.315966         3.014652        -2.575431
 C         3.001928         2.427768        -2.379757
 C         2.189370         2.525355        -3.608165
 C         2.579860         1.148840        -3.176890
 C         1.881944         0.167908        -2.232169
 C         1.347949         1.029547        -0.958954
 C         2.482261         2.150129        -0.943309
 C         1.347026         0.445478         0.436542
 O         0.335012         0.457831         1.141852
 H         4.200989         3.990066        -2.590766
 H         1.176820         2.934375        -3.564959
 H         2.637994         2.815742        -4.500170
 H         3.427932         0.723657        -3.782355
 H         0.909967        -0.279280        -2.673328
 H         2.539135        -0.637736        -1.962262
 H         0.325439         1.395512        -0.951561
 H         2.234966         3.107780        -0.470373
 H         3.535195         1.906791        -0.537769
 H         2.143169        -0.245475         0.661080
