19
Iteration:  3250charge 0 multiplicity 1
 O         4.373139         2.936902        -2.619595
 C         3.015946         2.485633        -2.412228
 C         2.024123         2.557291        -3.584794
 C         2.667325         1.190299        -3.101929
 C         1.971145         0.160491        -2.186022
 C         1.474401         1.042605        -1.021696
 C         2.500930         2.368150        -0.994172
 C         1.203990         0.199362         0.383977
 O         0.297868         0.476729         1.225694
 H         4.358378         3.866859        -2.204660
 H         0.974897         2.732211        -3.550844
 H         2.551677         2.974018        -4.489218
 H         3.091975         0.641939        -3.919753
 H         1.119880        -0.366608        -2.677155
 H         2.798681        -0.526256        -1.848218
 H         0.470823         1.427404        -1.395023
 H         1.936270         3.206467        -0.474618
 H         3.335854         2.049942        -0.347894
 H         1.847257        -0.656916         0.550522
