19
Iteration:  2318
 O         4.289998         2.824028        -2.477151
 C         2.919633         2.513032        -2.428130
 C         2.124261         2.438307        -3.680241
 C         2.578949         1.108240        -3.210926
 C         1.871004         0.260034        -2.165218
 C         1.399607         1.267406        -0.950307
 C         2.507584         2.370358        -0.981201
 C         1.379829         0.373711         0.391396
 O         0.399029         0.288804         1.097502
 H         4.346423         3.551366        -1.812899
 H         1.202154         2.939172        -3.791021
 H         2.815877         2.947412        -4.420471
 H         3.272562         0.522832        -3.794145
 H         0.957893        -0.329771        -2.609934
 H         2.580914        -0.438178        -1.698231
 H         0.354807         1.583896        -1.022029
 H         1.830868         3.186173        -0.596631
 H         3.332067         2.242476        -0.216824
 H         2.423546         0.018806         0.663214
