19
Iteration:  3861
 O         4.360978         3.000625        -2.540181
 C         3.024093         2.413403        -2.449825
 C         2.122709         2.437754        -3.681136
 C         2.685284         1.070354        -3.041951
 C         1.792583         0.269621        -2.123173
 C         1.340364         1.124887        -0.965284
 C         2.442198         2.333804        -0.996614
 C         1.340339         0.416188         0.379700
 O         0.389094         0.329642         1.089376
 H         4.394194         3.836863        -2.010935
 H         1.081894         2.584503        -3.405060
 H         2.396129         3.005289        -4.631821
 H         3.319119         0.483886        -3.767556
 H         0.966966        -0.251711        -2.660308
 H         2.482923        -0.454258        -1.630812
 H         0.418206         1.519535        -1.192406
 H         1.949255         3.350430        -0.947148
 H         3.252799         1.998305        -0.254437
 H         2.283419        -0.141428         0.587145
