19
Iteration:  4936
 O         4.338750         2.993333        -2.510386
 C         3.021165         2.397203        -2.425048
 C         2.111647         2.391811        -3.623152
 C         2.730820         0.977088        -3.064437
 C         1.789716         0.242894        -2.128680
 C         1.355527         1.170037        -0.971930
 C         2.403277         2.463230        -0.996268
 C         1.319763         0.394509         0.295495
 O         0.433045         0.353957         1.134669
 H         4.306240         4.002236        -2.506205
 H         1.039655         2.502335        -3.589366
 H         2.560553         2.675558        -4.529468
 H         3.504243         0.604091        -3.665009
 H         1.038173        -0.361078        -2.708374
 H         2.266323        -0.628870        -1.853651
 H         0.328056         1.651452        -1.268834
 H         1.833632         3.424099        -0.757196
 H         3.251622         2.345194        -0.249626
 H         2.258123        -0.205415         0.448339
