19
Iteration:   888charge 0 multiplicity 1
 O         4.292432         2.797995        -2.459842
 C         2.964721         2.356051        -2.432272
 C         2.050822         2.671204        -3.578453
 C         2.520351         1.135329        -3.170695
 C         1.704496         0.342985        -2.095538
 C         1.403104         1.302341        -0.913348
 C         2.608324         2.365281        -0.957121
 C         1.449805         0.435657         0.343126
 O         0.463166         0.093576         0.926495
 H         4.400102         3.594502        -1.859320
 H         0.980899         2.925094        -3.525223
 H         2.593311         2.979426        -4.522925
 H         3.072343         0.562784        -3.871548
 H         0.842911        -0.119903        -2.497981
 H         2.410116        -0.461825        -1.766830
 H         0.456940         1.891687        -0.999597
 H         2.364087         3.300110        -0.435219
 H         3.453142         1.892916        -0.402880
 H         2.430838        -0.138300         0.396840
