19
Iteration:   625charge 0 multiplicity 1
 O         4.286035         2.951346        -2.417124
 C         2.991490         2.428162        -2.427633
 C         2.006060         2.473513        -3.523884
 C         2.627379         1.172772        -3.061500
 C         1.685326         0.355676        -2.182521
 C         1.464921         1.221833        -0.912175
 C         2.656523         2.305183        -0.913182
 C         1.398669         0.299597         0.192607
 O         0.434996         0.276404         0.995706
 H         4.428812         3.271888        -3.324472
 H         0.823577         2.558699        -3.327774
 H         2.240014         3.031300        -4.488333
 H         3.165856         0.554563        -3.805253
 H         0.777841         0.068809        -2.676493
 H         2.154768        -0.599721        -1.916003
 H         0.476716         1.727372        -0.889777
 H         2.167904         3.191283        -0.490729
 H         3.486673         1.841489        -0.423911
 H         2.297091        -0.359684         0.367180
