19
Iteration:   623
 O         4.292313         2.944182        -2.431988
 C         2.987561         2.431477        -2.426877
 C         2.009957         2.486952        -3.537445
 C         2.637587         1.172143        -3.061991
 C         1.678106         0.348083        -2.165971
 C         1.465349         1.234032        -0.929108
 C         2.633705         2.300459        -0.900378
 C         1.397356         0.304469         0.204788
 O         0.436802         0.263383         1.000899
 H         4.448405         3.294863        -3.360554
 H         0.814876         2.529790        -3.353302
 H         2.265917         3.052994        -4.486047
 H         3.235097         0.581002        -3.737605
 H         0.787078         0.045250        -2.715711
 H         2.167687        -0.571072        -1.944503
 H         0.461112         1.763606        -0.835588
 H         2.242835         3.241565        -0.409000
 H         3.421125         1.809958        -0.459017
 H         2.294005        -0.390368         0.344541
