19
Iteration:  4410
 O         4.296131         2.915208        -2.507482
 C         2.947968         2.425362        -2.445744
 C         2.055955         2.424012        -3.608052
 C         2.716876         1.131768        -3.073578
 C         1.881384         0.247758        -2.171448
 C         1.426276         1.165565        -0.915627
 C         2.492449         2.293273        -1.003275
 C         1.326564         0.336517         0.348884
 O         0.324740         0.414089         1.068261
 H         4.424016         3.857501        -2.474375
 H         1.018580         2.773232        -3.443796
 H         2.334897         2.900811        -4.601561
 H         3.481254         0.783383        -3.723029
 H         1.014123        -0.237811        -2.658487
 H         2.616667        -0.420802        -1.755159
 H         0.528513         1.683803        -1.154138
 H         2.165449         3.245973        -0.482151
 H         3.463741         2.035302        -0.510517
 H         2.358061        -0.177050         0.593473
