19
Iteration:  4811
 O         4.315400         2.902840        -2.458557
 C         2.900718         2.424107        -2.368340
 C         2.125050         2.506280        -3.725218
 C         2.716388         1.131101        -3.130147
 C         1.929495         0.178277        -2.171588
 C         1.304686         1.053959        -1.059768
 C         2.360852         2.262074        -0.988972
 C         1.330218         0.355441         0.360487
 O         0.450238         0.558993         1.182558
 H         4.045006         3.859329        -2.409200
 H         1.040568         2.860700        -3.724249
 H         2.659656         2.862845        -4.672856
 H         3.672894         0.733855        -3.608056
 H         1.184355        -0.464296        -2.589471
 H         2.856918        -0.281639        -1.750059
 H         0.267980         1.399646        -1.087415
 H         1.951368         3.148872        -0.519160
 H         3.304882         1.925546        -0.451164
 H         2.269425        -0.357567         0.569445
