19
Iteration:   279charge 0 multiplicity 1
 O         4.168963         3.094769        -2.536630
 C         2.932604         2.404439        -2.301084
 C         2.161620         2.499646        -3.532546
 C         2.742633         1.105384        -3.112679
 C         1.753058         0.308733        -2.327826
 C         1.487486         1.070257        -0.963972
 C         2.472517         2.255483        -0.890505
 C         1.395593         0.225563         0.343927
 O         0.435480         0.499284         1.083517
 H         4.700888         2.435394        -3.056566
 H         1.009260         2.560231        -3.721345
 H         2.480303         3.122575        -4.458473
 H         3.576758         0.774288        -3.716602
 H         0.820293         0.098149        -2.902950
 H         2.112777        -0.662355        -2.047707
 H         0.459538         1.436765        -0.920746
 H         1.945244         3.037012        -0.263711
 H         3.402487         1.933190        -0.403404
 H         1.990283        -0.649414         0.499465
