19
Iteration:   294charge 0 multiplicity 1
 O         4.191699         3.218311        -2.589850
 C         3.044056         2.437826        -2.327395
 C         2.086133         2.440208        -3.552174
 C         2.682717         1.154554        -3.116272
 C         1.735084         0.204138        -2.284832
 C         1.433673         1.045693        -0.977213
 C         2.594874         2.187308        -0.807149
 C         1.323446         0.315520         0.304541
 O         0.397681         0.435696         1.091595
 H         4.953676         2.615505        -2.766462
 H         1.095358         2.589964        -3.469106
 H         2.685402         2.878032        -4.233364
 H         3.307436         0.548771        -3.804097
 H         0.742159         0.119666        -2.809217
 H         2.201670        -0.826930        -2.193767
 H         0.473688         1.616429        -1.177716
 H         2.228744         3.154160        -0.476185
 H         3.457606         1.797128        -0.187736
 H         2.133733        -0.354564         0.553909
