19
Iteration:  3412
 O         4.380670         2.833143        -2.531520
 C         3.074474         2.322118        -2.344557
 C         1.967462         2.395096        -3.358603
 C         2.614964         1.088065        -3.075890
 C         1.837357         0.245380        -2.125838
 C         1.398436         1.360997        -1.015058
 C         2.498445         2.457532        -1.016365
 C         1.295397         0.705299         0.326696
 O         0.446705         0.052442         0.870120
 H         4.217261         3.795845        -2.677419
 H         0.900341         2.621988        -3.120974
 H         2.227224         2.702285        -4.369322
 H         3.176460         0.616750        -3.880058
 H         0.993113        -0.189509        -2.648376
 H         2.488975        -0.482763        -1.557992
 H         0.388653         1.852796        -1.308807
 H         2.065934         3.505184        -0.722370
 H         3.259414         2.116205        -0.278719
 H         2.327763         0.392170         0.792053
