19
Iteration:  4643charge 0 multiplicity 1
 O         4.380627         2.934249        -2.690348
 C         2.999626         2.429094        -2.281059
 C         1.982370         2.332504        -3.402357
 C         2.624948         1.041611        -3.032037
 C         1.893926         0.236450        -2.146121
 C         1.465671         1.233010        -1.008415
 C         2.522992         2.327339        -0.925333
 C         1.326016         0.542000         0.302263
 O         0.297645         0.295544         0.921607
 H         4.349607         3.874740        -3.012732
 H         0.965231         2.553044        -3.228534
 H         2.317039         2.862530        -4.302628
 H         3.462819         0.735918        -3.794283
 H         0.971243        -0.300692        -2.419683
 H         2.585701        -0.433551        -1.497341
 H         0.465789         1.543000        -1.334457
 H         2.021126         3.316449        -0.485708
 H         3.277132         2.038529        -0.170761
 H         2.458869         0.430715         0.789122
