19
Iteration:  1019charge 0 multiplicity 1
 O         4.364287         2.923641        -2.561220
 C         3.049031         2.367459        -2.310916
 C         2.034584         2.586217        -3.427703
 C         2.473770         1.187501        -3.175787
 C         1.762529         0.346864        -2.233693
 C         1.515215         1.193428        -0.916082
 C         2.582992         2.284788        -0.884565
 C         1.360394         0.480466         0.390466
 O         0.364457         0.102373         0.898633
 H         4.348597         3.186528        -3.529504
 H         1.048392         2.791667        -3.055702
 H         2.189628         3.111637        -4.366686
 H         3.326989         0.716111        -3.706147
 H         0.763227         0.059147        -2.405279
 H         2.267934        -0.664089        -2.222020
 H         0.572523         1.709361        -1.079422
 H         2.151907         3.238587        -0.541372
 H         3.473223         1.821653        -0.338636
 H         2.372273         0.253735         0.879922
