19
Iteration:   470charge 0 multiplicity 1
 O         4.343490         2.987619        -2.578540
 C         3.070111         2.375247        -2.417428
 C         2.077770         2.523757        -3.490543
 C         2.566552         1.078133        -3.063428
 C         1.620966         0.368318        -2.149973
 C         1.478552         1.280085        -0.864314
 C         2.572918         2.370326        -1.015972
 C         1.426546         0.497506         0.463922
 O         0.374459        -0.047074         0.870939
 H         4.461717         3.095799        -3.532137
 H         1.063496         3.032127        -3.216014
 H         2.502260         2.755000        -4.523426
 H         3.288916         0.477603        -3.611353
 H         0.633802         0.328360        -2.630189
 H         1.989251        -0.711005        -1.824420
 H         0.429559         1.685282        -0.928811
 H         2.230795         3.375597        -0.630917
 H         3.446217         2.284184        -0.229590
 H         2.224141         0.702189         1.231752
