19
Iteration:  1483charge 0 multiplicity 1
 O         4.406035         2.897537        -2.615697
 C         3.079997         2.390244        -2.366996
 C         1.999217         2.721740        -3.369978
 C         2.504265         1.267221        -3.206794
 C         1.764256         0.268279        -2.277150
 C         1.532443         1.105920        -0.912143
 C         2.568944         2.261487        -0.909535
 C         1.364079         0.265504         0.403319
 O         0.327113         0.254143         1.027776
 H         4.320936         3.689020        -3.164641
 H         1.000454         3.057383        -3.031169
 H         2.127951         3.022309        -4.454176
 H         3.194107         0.986450        -4.043097
 H         0.869757        -0.165825        -2.723967
 H         2.367044        -0.654132        -2.090943
 H         0.493816         1.557631        -1.019993
 H         2.023177         3.183796        -0.564094
 H         3.493234         1.913893        -0.376954
 H         2.141005        -0.378976         0.884179
