19
Iteration:  1487charge 0 multiplicity 1
 O         4.375332         2.893806        -2.611686
 C         3.111456         2.396502        -2.350309
 C         2.025026         2.709777        -3.362134
 C         2.488409         1.275936        -3.236876
 C         1.778803         0.280258        -2.254077
 C         1.517803         1.079446        -0.901659
 C         2.572472         2.285723        -0.965451
 C         1.375732         0.270200         0.396284
 O         0.300487         0.240856         1.055417
 H         4.346252         3.633828        -3.263897
 H         1.050202         2.994680        -3.045084
 H         2.236466         3.092640        -4.299915
 H         3.089372         1.062071        -4.088966
 H         0.917028        -0.097181        -2.825572
 H         2.355859        -0.728701        -2.092022
 H         0.531712         1.566490        -1.062745
 H         2.054759         3.136154        -0.497335
 H         3.468362         1.915117        -0.371655
 H         2.218209        -0.301290         0.876296
