19
Iteration:  2307charge 0 multiplicity 1
 O         4.239627         2.813425        -2.504181
 C         2.908255         2.373844        -2.380143
 C         2.087906         2.538624        -3.704759
 C         2.616995         1.105430        -3.158893
 C         1.874395         0.279339        -2.156017
 C         1.500502         1.195179        -0.972032
 C         2.425377         2.363597        -0.897869
 C         1.365761         0.514881         0.331450
 O         0.405147         0.269436         1.066230
 H         4.516241         3.407954        -1.783472
 H         1.053136         2.789882        -3.734122
 H         2.775922         2.877590        -4.528155
 H         3.463766         0.688520        -3.687443
 H         0.952386        -0.393417        -2.407212
 H         2.636978        -0.459986        -1.784294
 H         0.573981         1.766544        -1.137196
 H         2.131094         3.375926        -0.520049
 H         3.421685         2.092349        -0.483443
 H         2.314347         0.080213         0.662733
