19
Iteration:  3594
 O         4.318022         2.893524        -2.577660
 C         3.084229         2.342270        -2.404543
 C         2.032277         2.455725        -3.498120
 C         2.665399         1.139575        -3.116751
 C         1.870661         0.250551        -2.054720
 C         1.402692         1.209414        -0.938366
 C         2.475798         2.323062        -1.024521
 C         1.344683         0.466567         0.334722
 O         0.331084         0.288627         0.964269
 H         4.117357         3.862473        -2.482202
 H         0.952168         2.810878        -3.265943
 H         2.427119         3.138091        -4.255294
 H         3.325203         0.727244        -3.910118
 H         1.049640        -0.394152        -2.440138
 H         2.559019        -0.463302        -1.643167
 H         0.527649         1.588619        -1.285252
 H         1.954552         3.207700        -0.653346
 H         3.298964         2.226256        -0.172497
 H         2.408625         0.135016         0.678373
