19
Iteration:   592charge 0 multiplicity 1
 O         4.330556         2.903940        -2.632224
 C         3.075391         2.434636        -2.372505
 C         2.172189         2.585048        -3.567503
 C         2.602800         1.189941        -3.068213
 C         1.687239         0.359691        -2.160649
 C         1.304703         1.238894        -0.984173
 C         2.505735         2.267151        -0.898680
 C         1.289411         0.425701         0.307305
 O         0.475865         0.047522         1.132678
 H         4.345888         3.674695        -3.178564
 H         1.007090         2.863901        -3.479847
 H         2.800970         2.909357        -4.452316
 H         3.112678         0.605890        -3.828709
 H         0.955574        -0.040188        -2.803632
 H         2.385669        -0.443867        -1.976799
 H         0.378206         1.808770        -0.910931
 H         2.309076         3.241442        -0.433534
 H         3.313903         1.897028        -0.230010
 H         2.353402         0.243189         0.559534
