19
Iteration:  2635
 O         4.332045         2.817049        -2.619466
 C         3.012320         2.494890        -2.370598
 C         2.032086         2.542825        -3.616156
 C         2.602238         1.238882        -3.089429
 C         1.935565         0.259506        -2.230846
 C         1.574616         1.131969        -0.885113
 C         2.508844         2.233047        -0.999113
 C         1.295458         0.572333         0.492055
 O         0.218794         0.184462         1.034493
 H         4.620886         3.726676        -2.871451
 H         1.017708         2.544379        -3.393321
 H         2.431224         2.941093        -4.573457
 H         3.321044         0.695477        -3.786606
 H         0.925531        -0.238687        -2.531878
 H         2.562767        -0.663277        -1.924617
 H         0.555530         1.580963        -0.937745
 H         2.184759         3.197585        -0.588890
 H         3.420673         2.016749        -0.530722
 H         2.122536         0.493810         1.221055
