19
Iteration:  3114charge 0 multiplicity 1
 O         4.325877         2.887166        -2.378877
 C         2.999926         2.427164        -2.327582
 C         2.002497         2.406287        -3.549356
 C         2.726326         1.103844        -3.124196
 C         1.891096         0.190642        -2.206045
 C         1.337727         1.114059        -1.166939
 C         2.275053         2.371481        -0.987276
 C         1.288394         0.311609         0.157326
 O         0.646125         0.582988         1.193149
 H         4.351016         3.763763        -2.022499
 H         0.964559         2.639883        -3.371139
 H         2.314992         2.917587        -4.450903
 H         3.460651         0.693914        -3.930889
 H         1.158857        -0.511022        -2.625691
 H         2.716634        -0.371949        -1.666586
 H         0.291243         1.359210        -1.462201
 H         1.733696         3.341178        -0.792826
 H         2.882918         2.255143        -0.035015
 H         1.847172        -0.697501         0.118837
