19
Iteration:   934charge 0 multiplicity 1
 O         4.414401         2.849684        -2.727548
 C         3.069221         2.427544        -2.311665
 C         2.080764         2.539523        -3.427301
 C         2.613584         1.181873        -3.075886
 C         1.603007         0.290947        -2.262849
 C         1.356165         1.298103        -0.908645
 C         2.494541         2.363907        -0.860580
 C         1.436411         0.472353         0.342219
 O         0.425757         0.023610         0.941755
 H         4.560684         3.722698        -2.326172
 H         1.120932         2.796441        -3.108697
 H         2.422323         3.023812        -4.319586
 H         3.384469         0.688576        -3.756480
 H         0.646282         0.268976        -2.674067
 H         1.936414        -0.718256        -1.987543
 H         0.384971         1.708237        -0.917151
 H         2.083895         3.299535        -0.547176
 H         3.226764         2.109910        -0.122372
 H         2.466860         0.228961         0.711719
