19
Iteration:  2762
 O         4.421626         2.859577        -2.518976
 C         3.093101         2.367166        -2.446706
 C         2.153800         2.450998        -3.585124
 C         2.545626         1.103297        -3.078620
 C         1.682115         0.306500        -2.084822
 C         1.362670         1.299083        -0.877025
 C         2.453490         2.392398        -1.047172
 C         1.322431         0.630247         0.455222
 O         0.452571        -0.028064         0.923750
 H         4.403810         3.800004        -2.687132
 H         1.181386         2.957873        -3.324895
 H         2.475198         2.819366        -4.636978
 H         3.021077         0.579410        -3.991660
 H         0.742674         0.084126        -2.498624
 H         2.365026        -0.486018        -1.913701
 H         0.374076         1.699571        -1.096891
 H         2.162121         3.385151        -0.703973
 H         3.394241         2.120646        -0.465549
 H         2.055773         1.124647         1.148039
