19
Iteration:  1588charge 0 multiplicity 1
 O         4.425448         2.925562        -2.666644
 C         3.137811         2.399050        -2.390239
 C         2.130845         2.690248        -3.505841
 C         2.539763         1.250081        -3.046316
 C         1.526752         0.373507        -2.118220
 C         1.413374         1.261932        -0.855142
 C         2.611212         2.260543        -0.953192
 C         1.360169         0.349186         0.369957
 O         0.375023        -0.046846         0.983119
 H         4.469881         3.354156        -3.525871
 H         1.094020         2.915701        -3.228494
 H         2.321118         2.998868        -4.595438
 H         3.197303         0.814051        -3.852299
 H         0.486351         0.231193        -2.544212
 H         2.083631        -0.613453        -1.930130
 H         0.454704         1.731287        -0.939240
 H         2.235963         3.242795        -0.742840
 H         3.323369         2.220853        -0.152889
 H         2.407946         0.024665         0.772475
