19
Iteration:  4706
 O         4.303902         2.964275        -2.572363
 C         3.006120         2.381901        -2.486481
 C         1.965665         2.463630        -3.620874
 C         2.703480         1.162620        -3.151011
 C         2.014795         0.237984        -2.088684
 C         1.450783         1.134132        -0.951664
 C         2.547189         2.243689        -0.960991
 C         1.264241         0.360064         0.419374
 O         0.246328         0.459899         1.067248
 H         4.216004         3.934647        -2.373374
 H         0.885673         2.804241        -3.562256
 H         2.416895         2.764527        -4.633686
 H         3.469428         0.515223        -3.811413
 H         1.200785        -0.488404        -2.401776
 H         2.786631        -0.540470        -1.848986
 H         0.454484         1.599810        -1.145605
 H         2.222145         3.038764        -0.273646
 H         3.405203         1.853365        -0.386596
 H         2.220562        -0.063894         0.933823
