19
Iteration:  1918
 O         4.370215         2.952518        -2.342280
 C         3.049571         2.437298        -2.502884
 C         2.082484         2.562086        -3.598986
 C         2.578664         1.182768        -3.288863
 C         1.727496         0.271500        -2.238181
 C         1.363198         1.116198        -0.936463
 C         2.504484         2.231098        -0.910301
 C         1.302041         0.344988         0.307977
 O         0.478146         0.325468         1.184640
 H         4.596498         3.510955        -3.131953
 H         1.066232         2.921546        -3.379237
 H         2.586615         3.088766        -4.493101
 H         3.238458         0.664926        -3.992397
 H         0.770573         0.007486        -2.778209
 H         2.382556        -0.641655        -2.095928
 H         0.365215         1.491129        -0.939385
 H         2.114809         3.154790        -0.483805
 H         3.357518         1.945607        -0.279942
 H         2.170124        -0.334660         0.455826
