19
Iteration:  1308charge 0 multiplicity 1
 O         4.296588         2.971038        -2.449317
 C         2.993417         2.355891        -2.368979
 C         2.051292         2.684700        -3.465501
 C         2.581342         1.148890        -3.194161
 C         1.727809         0.325442        -2.323505
 C         1.436723         1.107319        -0.960752
 C         2.515403         2.226105        -0.960562
 C         1.392497         0.346876         0.356914
 O         0.457764         0.291907         1.080037
 H         4.862033         2.525275        -3.119897
 H         0.906886         2.732224        -3.457635
 H         2.385948         3.302215        -4.283721
 H         3.349564         0.713036        -3.802146
 H         0.773772         0.031604        -2.706910
 H         2.424110        -0.607945        -2.142325
 H         0.569268         1.763447        -1.114804
 H         2.128491         3.184735        -0.533433
 H         3.363468         2.053333        -0.243923
 H         2.298346        -0.237604         0.653327
