19
Iteration:  3426charge 0 multiplicity 1
 O         4.401622         2.874457        -2.538472
 C         3.099576         2.373516        -2.451472
 C         2.036204         2.494062        -3.536251
 C         2.567854         1.096339        -3.018860
 C         1.797342         0.245017        -2.042894
 C         1.361893         1.241634        -1.006428
 C         2.487821         2.386454        -0.967006
 C         1.345218         0.631238         0.377453
 O         0.401165         0.050921         0.898391
 H         4.391269         3.851558        -2.672857
 H         1.173684         2.948057        -3.119521
 H         2.298921         2.788043        -4.501471
 H         3.127408         0.540170        -3.866731
 H         0.893532        -0.266692        -2.401412
 H         2.398223        -0.631804        -1.772008
 H         0.372486         1.547150        -1.333589
 H         2.028657         3.446254        -0.721711
 H         3.329426         2.271131        -0.206115
 H         2.310148         1.071255         0.912168
