19
Iteration:   179charge 0 multiplicity 1
 O         4.275598         2.814691        -2.257750
 C         2.947382         2.442504        -2.401758
 C         2.124176         2.608709        -3.700414
 C         2.735103         1.155252        -3.084637
 C         1.702963         0.256093        -2.398541
 C         1.381282         0.958914        -0.989316
 C         2.213313         2.326104        -1.012669
 C         1.507494         0.335183         0.341354
 O         0.631832         0.505661         1.177757
 H         4.430555         3.748945        -2.471163
 H         0.944915         2.699408        -3.673740
 H         2.564810         2.858782        -4.707117
 H         3.510229         0.768110        -3.740411
 H         0.778448         0.084895        -2.949337
 H         2.185626        -0.702416        -2.227465
 H         0.382000         1.284346        -0.992000
 H         1.498912         3.146766        -0.966558
 H         2.971166         2.341372        -0.233543
 H         2.399323        -0.341000         0.543483
