19
Iteration:  2725charge 0 multiplicity 1
 O         4.338173         2.822362        -2.604462
 C         3.000495         2.444588        -2.427619
 C         2.148911         2.419869        -3.638431
 C         2.623426         1.089738        -3.036805
 C         1.745367         0.396196        -2.126036
 C         1.429917         1.323554        -0.789084
 C         2.559858         2.470449        -0.943754
 C         1.354515         0.517414         0.473235
 O         0.344884         0.002414         0.864873
 H         4.226247         3.558904        -3.240213
 H         1.145646         2.741921        -3.391707
 H         2.593288         2.836817        -4.484199
 H         3.277131         0.519212        -3.615222
 H         0.733174         0.056673        -2.633186
 H         2.063173        -0.661127        -1.884783
 H         0.357832         1.538284        -0.928248
 H         2.232575         3.437221        -0.633709
 H         3.344492         2.202276        -0.302905
 H         2.265706         0.625501         1.140048
