19
Iteration:  1893
 O         4.249126         3.009590        -2.472081
 C         3.029307         2.463211        -2.418402
 C         2.167731         2.610088        -3.544082
 C         2.577091         1.234932        -3.089445
 C         1.719727         0.303298        -2.302247
 C         1.425204         1.125848        -1.045322
 C         2.545975         2.138115        -0.933258
 C         1.327891         0.286677         0.354452
 O         0.422404         0.351706         1.185664
 H         4.667523         2.603286        -3.283360
 H         1.042243         2.723458        -3.524817
 H         2.661205         2.868745        -4.531354
 H         3.261683         0.700414        -3.667336
 H         0.936329         0.009947        -2.957324
 H         2.429851        -0.531314        -2.185052
 H         0.378764         1.558361        -1.012352
 H         2.357555         2.985534        -0.318822
 H         3.346482         1.692073        -0.500601
 H         2.169512        -0.317466         0.650132
