19
Iteration:  2879charge 0 multiplicity 1
 O         4.359247         2.966276        -2.595957
 C         3.030606         2.393548        -2.363506
 C         2.056028         2.421310        -3.511515
 C         2.633680         1.076606        -2.999448
 C         1.759778         0.341212        -2.068483
 C         1.398233         1.352265        -1.005350
 C         2.549430         2.320252        -0.897181
 C         1.358659         0.550905         0.403453
 O         0.356212         0.063617         0.846956
 H         4.307134         3.345722        -3.495800
 H         0.958217         2.554781        -3.436012
 H         2.359307         2.616164        -4.601282
 H         3.376703         0.349932        -3.501546
 H         0.668315         0.185382        -2.473846
 H         2.256623        -0.544834        -1.565458
 H         0.454681         1.840107        -1.334828
 H         2.403323         3.321508        -0.441092
 H         3.476811         1.903306        -0.406038
 H         2.370340         0.478962         0.877510
