19
Iteration:  4738charge 0 multiplicity 1
 O         4.276434         3.011476        -2.575990
 C         3.090942         2.377395        -2.382886
 C         1.977102         2.384225        -3.475140
 C         2.703065         1.096305        -3.084624
 C         1.907411         0.107716        -2.195129
 C         1.441921         1.144645        -1.062717
 C         2.473812         2.231386        -0.805128
 C         1.302619         0.452954         0.263888
 O         0.353239         0.530127         1.049077
 H         3.912831         3.901195        -2.691966
 H         0.863755         2.597087        -3.492343
 H         2.388004         2.852199        -4.458430
 H         3.625347         0.636134        -3.704099
 H         1.028811        -0.297426        -2.760977
 H         2.588953        -0.604896        -1.826726
 H         0.469988         1.597879        -1.363782
 H         2.058017         3.144105        -0.392945
 H         3.399458         1.995896        -0.223638
 H         2.341767        -0.011524         0.582540
