19
Iteration:  2962
 O         4.271700         2.909938        -2.605162
 C         3.000137         2.440417        -2.372430
 C         1.992295         2.563945        -3.509347
 C         2.674159         1.215039        -3.105612
 C         2.041060         0.224021        -2.190828
 C         1.499987         1.062554        -0.913125
 C         2.501167         2.253960        -0.910329
 C         1.263501         0.327181         0.331116
 O         0.242429         0.443180         1.070729
 H         4.561291         3.146159        -3.512622
 H         0.931399         2.761685        -3.509517
 H         2.610076         2.986359        -4.370604
 H         3.404226         0.859612        -3.887852
 H         1.254614        -0.466410        -2.389406
 H         2.879678        -0.416283        -1.878653
 H         0.503294         1.471870        -1.272379
 H         1.989992         3.202069        -0.547579
 H         3.396125         2.102707        -0.367191
 H         2.081435        -0.330593         0.674609
