19
Iteration:   918charge 0 multiplicity 1
 O         4.485106         2.955911        -2.565538
 C         3.133259         2.397102        -2.422710
 C         2.030649         2.548178        -3.457565
 C         2.497700         1.088084        -3.122741
 C         1.556813         0.373187        -2.180973
 C         1.379025         1.211278        -0.937832
 C         2.557166         2.433927        -1.004566
 C         1.432798         0.399691         0.408786
 O         0.417312         0.033761         0.957791
 H         4.639366         3.648515        -1.940505
 H         0.913813         2.752967        -3.246467
 H         2.381701         2.884433        -4.469591
 H         2.927184         0.564187        -3.919140
 H         0.650294         0.047003        -2.815534
 H         2.131429        -0.557457        -1.880451
 H         0.329852         1.750684        -1.000904
 H         2.224638         3.487199        -0.585451
 H         3.416171         2.138011        -0.265506
 H         2.420699         0.029367         0.786688
