19
Iteration:  4849charge 0 multiplicity 1
 O         4.351919         2.936010        -2.377672
 C         3.090586         2.322809        -2.399209
 C         2.017187         2.334869        -3.504720
 C         2.671947         1.127772        -3.088382
 C         1.850169         0.121082        -2.267000
 C         1.299071         1.102393        -1.092117
 C         2.302996         2.407046        -0.992317
 C         1.399958         0.437292         0.276672
 O         0.520774         0.536630         1.089404
 H         4.286492         3.948172        -2.383899
 H         0.997308         2.518879        -3.268135
 H         2.356847         2.818927        -4.412482
 H         3.442093         0.779029        -3.727871
 H         0.935056        -0.459708        -2.790339
 H         2.603083        -0.469650        -1.761149
 H         0.289011         1.388019        -1.497267
 H         1.719107         3.381334        -0.847704
 H         2.890077         2.406588        -0.052392
 H         2.457567        -0.104975         0.497496
