19
Iteration:  4604charge 0 multiplicity 1
 O         4.328632         2.986262        -2.563058
 C         3.034420         2.386770        -2.506820
 C         2.126409         2.398872        -3.630583
 C         2.632906         1.079069        -3.156430
 C         1.811334         0.298209        -1.998003
 C         1.439766         1.302927        -0.862798
 C         2.513868         2.338733        -1.041054
 C         1.351476         0.456940         0.517518
 O         0.247557         0.166909         0.952542
 H         4.145305         3.873948        -2.855730
 H         1.068232         2.663248        -3.527236
 H         2.742391         2.753476        -4.505214
 H         3.257303         0.436490        -3.663846
 H         1.024287        -0.303839        -2.429733
 H         2.586476        -0.324225        -1.689624
 H         0.485253         1.838948        -0.884368
 H         2.387306         3.312453        -0.744420
 H         3.428611         1.893097        -0.630386
 H         2.242183         0.269227         1.167797
