19
Iteration:   380
 O         4.383898         2.859869        -2.729433
 C         3.041875         2.452681        -2.373726
 C         1.918727         2.649395        -3.368176
 C         2.602840         1.197193        -3.116689
 C         1.967699         0.254854        -2.132111
 C         1.590889         1.122272        -0.946617
 C         2.553280         2.372803        -0.917290
 C         1.305051         0.387408         0.514744
 O         0.186695         0.157971         0.902953
 H         4.197209         3.378754        -3.511572
 H         0.944355         2.841565        -3.114662
 H         2.134163         3.002086        -4.308860
 H         3.352319         0.833477        -3.867962
 H         1.037216        -0.275332        -2.548637
 H         2.767479        -0.478398        -1.962102
 H         0.543780         1.488204        -1.201103
 H         2.031506         3.330419        -0.631202
 H         3.360171         2.367978        -0.191647
 H         2.251679        -0.014125         0.971768
