19
Iteration:  3526charge 0 multiplicity 1
 O         4.289802         2.934939        -2.560497
 C         3.102658         2.336089        -2.347791
 C         2.067986         2.342432        -3.455945
 C         2.598485         1.042840        -3.071799
 C         1.792237         0.246502        -2.098880
 C         1.401599         1.351256        -1.018260
 C         2.519351         2.441902        -0.941931
 C         1.367015         0.579585         0.309430
 O         0.390509         0.123636         0.903579
 H         4.344295         3.886922        -2.867143
 H         1.072409         2.657450        -3.225811
 H         2.454616         2.986889        -4.276879
 H         3.198194         0.451229        -3.669372
 H         0.941275        -0.117409        -2.710634
 H         2.194902        -0.691637        -1.716530
 H         0.439726         1.803398        -1.085700
 H         2.093736         3.496820        -0.693389
 H         3.313941         2.210938        -0.042498
 H         2.386560         0.287394         0.630274
