19
Iteration:  2444
 O         4.300883         2.972772        -2.443642
 C         2.974256         2.347572        -2.385846
 C         2.174916         2.548541        -3.580779
 C         2.659222         1.146336        -3.130049
 C         1.820023         0.243344        -2.251689
 C         1.387055         1.136454        -1.036520
 C         2.328325         2.286251        -1.071834
 C         1.346961         0.328254         0.378120
 O         0.453465         0.426824         1.225995
 H         4.629663         2.973248        -3.352632
 H         1.120737         2.863173        -3.481595
 H         2.843245         3.072793        -4.326079
 H         3.300268         0.532333        -3.786157
 H         0.963046        -0.231103        -2.675238
 H         2.511587        -0.633439        -1.831335
 H         0.359705         1.575825        -1.144081
 H         1.996677         3.267233        -0.776232
 H         3.200836         2.067550        -0.524645
 H         2.228238        -0.308047         0.670600
