19
Iteration:   399charge 0 multiplicity 1
 O         4.394042         3.039407        -2.723594
 C         3.093891         2.380550        -2.414151
 C         2.021309         2.542330        -3.399287
 C         2.527351         1.172778        -3.086129
 C         1.918901         0.265032        -2.076859
 C         1.446878         1.239105        -0.870962
 C         2.612166         2.339182        -0.918948
 C         1.253616         0.375564         0.361779
 O         0.244225         0.072935         0.932220
 H         4.523207         3.054710        -3.673660
 H         1.038624         2.937431        -3.045585
 H         2.178402         3.052528        -4.341736
 H         3.036225         0.707668        -3.940259
 H         1.050514        -0.319402        -2.386367
 H         2.589553        -0.418878        -1.650495
 H         0.497499         1.737538        -1.027762
 H         2.285972         3.394807        -0.707506
 H         3.423046         2.112375        -0.273056
 H         2.188676         0.170324         0.894112
