19
Iteration:   314
 O         4.210863         3.203718        -2.575140
 C         3.077209         2.360861        -2.388230
 C         2.012578         2.497743        -3.424373
 C         2.668100         1.072902        -3.150643
 C         1.824994         0.263022        -2.195119
 C         1.405689         1.181699        -1.034122
 C         2.630397         2.120616        -1.002027
 C         1.306898         0.405994         0.306821
 O         0.352838         0.354165         1.084012
 H         4.910480         2.916252        -1.909822
 H         1.070895         2.553206        -2.985084
 H         2.258567         2.869949        -4.358141
 H         3.260431         0.617222        -3.964748
 H         0.919975        -0.239927        -2.675742
 H         2.433614        -0.498156        -1.673897
 H         0.421245         1.699359        -1.239239
 H         2.439113         3.051259        -0.390940
 H         3.440551         1.569540        -0.452995
 H         2.223804        -0.275919         0.489466
