19
Iteration:  2957
 O         4.279726         2.917037        -2.618082
 C         2.961012         2.460329        -2.406966
 C         2.033193         2.543391        -3.540305
 C         2.687239         1.239497        -3.109733
 C         2.010859         0.193698        -2.130724
 C         1.518219         1.044822        -0.923992
 C         2.502623         2.284202        -0.936890
 C         1.257181         0.334395         0.390828
 O         0.230335         0.420379         1.056760
 H         4.622453         3.157127        -3.468354
 H         1.028385         3.022728        -3.421966
 H         2.538454         3.236990        -4.187119
 H         3.309353         0.783231        -3.843282
 H         1.223288        -0.496741        -2.592428
 H         2.834322        -0.520985        -1.851286
 H         0.544606         1.402753        -1.192246
 H         2.027166         3.140185        -0.513012
 H         3.496040         2.082555        -0.419871
 H         2.076237        -0.398915         0.702988
