19
Iteration:  4401charge 0 multiplicity 1
 O         4.299830         2.903988        -2.512777
 C         3.027938         2.469346        -2.410631
 C         2.046577         2.437254        -3.682102
 C         2.695588         1.181445        -3.199951
 C         1.890945         0.243710        -2.188346
 C         1.429881         1.154149        -0.941580
 C         2.490721         2.274919        -0.926888
 C         1.313032         0.361917         0.424017
 O         0.316680         0.424844         1.081485
 H         4.153621         3.850054        -2.540597
 H         1.082908         2.529102        -3.314372
 H         2.484551         2.812607        -4.665891
 H         3.427565         0.837140        -3.761319
 H         1.102112        -0.439360        -2.495380
 H         2.580144        -0.486990        -1.844098
 H         0.365129         1.390988        -1.101323
 H         2.065707         3.152014        -0.299209
 H         3.398848         1.868399        -0.432816
 H         2.251399        -0.235760         0.794343
