19
Iteration:  1041
 O         4.361253         2.903722        -2.623688
 C         2.973143         2.484119        -2.330511
 C         1.930564         2.616615        -3.389603
 C         2.678984         1.208812        -2.990672
 C         1.766789         0.260522        -2.283884
 C         1.398966         1.272947        -0.925927
 C         2.670056         2.188863        -0.884719
 C         1.344472         0.464463         0.316981
 O         0.364207         0.125127         0.920637
 H         4.397402         3.050173        -3.547614
 H         0.885214         2.822044        -3.243368
 H         2.302395         2.968670        -4.327201
 H         3.225217         0.808123        -3.906943
 H         1.002100        -0.195288        -2.862963
 H         2.233590        -0.671900        -1.774160
 H         0.484012         1.832053        -0.865735
 H         2.363346         3.107766        -0.369891
 H         3.544429         1.513962        -0.525659
 H         2.314317         0.352473         0.867520
