19
Iteration:  2124charge 0 multiplicity 1
 O         4.326040         2.871771        -2.597593
 C         3.024971         2.435563        -2.413305
 C         1.999473         2.488903        -3.579810
 C         2.532867         1.242235        -3.204864
 C         1.922042         0.340367        -2.100226
 C         1.518688         1.197277        -0.857108
 C         2.590983         2.379372        -1.002964
 C         1.311307         0.391037         0.396554
 O         0.242181         0.180609         0.962824
 H         4.708537         3.165343        -1.735551
 H         0.885498         2.646515        -3.280592
 H         2.341731         2.841278        -4.517457
 H         3.263718         0.596663        -3.758737
 H         1.061068        -0.260783        -2.089362
 H         2.724583        -0.384908        -1.916135
 H         0.459802         1.617980        -0.923632
 H         2.288196         3.304228        -0.521464
 H         3.547073         1.949333        -0.424003
 H         2.330972        -0.003867         0.784785
