19
Iteration:  1299
 O         4.259893         2.939869        -2.405495
 C         2.965862         2.452020        -2.362890
 C         2.054277         2.587753        -3.529269
 C         2.635347         1.230497        -3.183110
 C         1.689560         0.297359        -2.276860
 C         1.522704         1.138478        -0.952074
 C         2.535149         2.215865        -0.947568
 C         1.446778         0.351973         0.341802
 O         0.418214         0.306420         1.061938
 H         4.614579         2.449228        -3.171807
 H         1.063631         2.883625        -3.131213
 H         2.533452         3.176051        -4.310972
 H         3.112472         0.703011        -4.036607
 H         0.769884         0.086257        -2.777216
 H         2.120251        -0.710537        -2.235992
 H         0.423922         1.434844        -1.053540
 H         1.982325         3.109874        -0.568679
 H         3.480985         1.969327        -0.462330
 H         2.369009        -0.315022         0.510180
