19
Iteration:  2010charge 0 multiplicity 1
 O         4.307637         3.011344        -2.374771
 C         3.053663         2.389022        -2.404290
 C         2.176527         2.534740        -3.672424
 C         2.448833         1.122948        -3.190217
 C         1.669246         0.339348        -2.204137
 C         1.428456         1.157100        -0.950251
 C         2.428028         2.349988        -1.052123
 C         1.397660         0.330531         0.347762
 O         0.481280         0.227956         1.139847
 H         5.157671         2.531495        -2.446283
 H         1.347561         3.198479        -3.671083
 H         2.868673         2.779391        -4.464588
 H         3.101503         0.553788        -3.816369
 H         0.756935        -0.101627        -2.685254
 H         2.312752        -0.488602        -1.781636
 H         0.426088         1.630247        -1.076018
 H         2.023167         3.343992        -0.638897
 H         3.308885         2.273395        -0.292298
 H         2.354772        -0.223956         0.480348
