19
Iteration:  2200charge 0 multiplicity 1
 O         4.248348         3.084011        -2.535239
 C         3.009166         2.440724        -2.400461
 C         1.973477         2.436836        -3.502015
 C         2.655337         1.110451        -3.124640
 C         1.869379         0.254362        -2.097879
 C         1.574927         1.236718        -0.945546
 C         2.718562         2.257471        -0.994626
 C         1.295884         0.448510         0.454818
 O         0.175919         0.239934         0.903721
 H         4.747828         2.756232        -3.311033
 H         0.883213         2.455048        -3.293271
 H         2.156713         2.690044        -4.548538
 H         3.228427         0.486895        -3.812036
 H         0.940017        -0.065640        -2.418530
 H         2.452030        -0.539747        -1.610903
 H         0.679089         1.906286        -1.089437
 H         2.594724         3.141864        -0.418788
 H         3.618532         1.777037        -0.588510
 H         2.255305         0.004992         0.853502
