19
Iteration:  2186charge 0 multiplicity 1
 O         4.247439         3.158197        -2.597836
 C         3.152882         2.278684        -2.470450
 C         1.966521         2.422981        -3.424895
 C         2.627270         1.071437        -3.161746
 C         1.875386         0.269219        -2.062455
 C         1.471925         1.261034        -0.863998
 C         2.675294         2.214944        -0.903893
 C         1.267342         0.518945         0.353178
 O         0.238277         0.240701         0.885737
 H         4.933890         2.756684        -3.189973
 H         0.940956         2.614807        -2.956616
 H         2.144992         3.108104        -4.219416
 H         3.320569         0.723160        -3.946744
 H         0.934804        -0.228235        -2.538788
 H         2.493540        -0.682539        -1.903699
 H         0.446531         1.578071        -1.177883
 H         2.406765         3.232746        -0.565450
 H         3.484481         1.903420        -0.317639
 H         2.190250         0.178595         0.951054
