19
Iteration:  1014
 O         4.364558         2.935332        -2.526137
 C         3.029143         2.332116        -2.365926
 C         2.055715         2.622229        -3.414096
 C         2.480244         1.166362        -3.202145
 C         1.764541         0.307922        -2.240613
 C         1.530874         1.252458        -0.846009
 C         2.575426         2.288293        -0.944602
 C         1.394636         0.460622         0.380727
 O         0.343537         0.095471         0.902439
 H         4.334915         3.256307        -3.421716
 H         1.077718         2.859998        -2.922585
 H         2.238073         3.138789        -4.403558
 H         3.217087         0.634613        -3.774880
 H         0.644548        -0.055504        -2.457455
 H         2.296839        -0.614682        -2.086233
 H         0.485857         1.703823        -0.929408
 H         2.204168         3.290906        -0.643988
 H         3.407495         1.950193        -0.364048
 H         2.315376         0.183106         0.908126
