19
Iteration:  1215charge 0 multiplicity 1
 O         4.394157         2.853565        -2.612067
 C         3.002342         2.467164        -2.367057
 C         2.036257         2.601637        -3.454801
 C         2.617233         1.212383        -3.165746
 C         1.777370         0.321527        -2.203486
 C         1.361759         1.165184        -0.952870
 C         2.462379         2.250824        -0.896065
 C         1.420307         0.330013         0.311426
 O         0.408876         0.243850         1.005920
 H         4.435603         3.756633        -2.221938
 H         1.000343         2.797181        -3.209408
 H         2.315025         3.031810        -4.393062
 H         3.350618         0.664359        -3.858220
 H         0.757828         0.031863        -2.660324
 H         2.351095        -0.516912        -1.873875
 H         0.309787         1.450224        -1.020014
 H         2.253031         3.182618        -0.361150
 H         3.278267         1.864258        -0.303985
 H         2.485854        -0.003397         0.670772
