19
Iteration:  4904
 O         4.321536         2.975112        -2.469224
 C         2.971610         2.413128        -2.469957
 C         2.201635         2.405743        -3.740582
 C         2.724752         1.041684        -3.152098
 C         1.826830         0.284604        -2.181824
 C         1.293321         1.150930        -0.970322
 C         2.326806         2.314412        -0.920408
 C         1.328985         0.418532         0.373391
 O         0.463293         0.380766         1.208459
 H         4.309040         3.948445        -2.465332
 H         1.152677         2.502524        -3.917517
 H         2.781960         2.769623        -4.533272
 H         3.574949         0.652062        -3.638227
 H         0.871054        -0.217496        -2.654661
 H         2.531658        -0.432339        -1.787904
 H         0.307891         1.582319        -1.378120
 H         1.782671         3.190723        -0.415309
 H         3.251979         2.050821        -0.336158
 H         2.306691        -0.081174         0.383379
