19
Iteration:  1492charge 0 multiplicity 1
 O         4.350726         2.891468        -2.598571
 C         3.115307         2.414078        -2.373698
 C         2.048344         2.684408        -3.338981
 C         2.477957         1.286823        -3.233558
 C         1.810322         0.283920        -2.242623
 C         1.493146         1.049728        -0.919577
 C         2.590941         2.278247        -1.007925
 C         1.354814         0.282318         0.411299
 O         0.293499         0.224393         1.070988
 H         4.327753         3.517739        -3.342420
 H         1.006427         2.954739        -2.980705
 H         2.487569         3.313421        -4.275555
 H         2.993640         0.934811        -4.179238
 H         0.853820         0.033340        -2.783410
 H         2.362937        -0.569902        -2.110247
 H         0.541793         1.546205        -1.053602
 H         2.214126         3.145252        -0.440414
 H         3.365975         2.051009        -0.304629
 H         2.363887        -0.136056         0.711511
