19
Iteration:  3169
 O         4.201716         3.041329        -2.269495
 C         2.994686         2.297933        -2.321046
 C         2.125750         2.506307        -3.554086
 C         2.675677         1.122315        -3.248817
 C         1.851526         0.162358        -2.385257
 C         1.338375         0.940532        -1.066570
 C         2.436832         2.130814        -0.970704
 C         1.368857         0.378304         0.316022
 O         0.549989         0.743404         1.170136
 H         3.889384         3.852481        -2.705596
 H         1.045390         2.746044        -3.519606
 H         2.544664         2.608951        -4.527812
 H         3.526358         0.893336        -3.932602
 H         0.919980        -0.192625        -2.820408
 H         2.363020        -0.816222        -2.148294
 H         0.359429         1.278396        -1.393727
 H         1.909616         3.094870        -0.606162
 H         3.183705         1.780800        -0.176900
 H         2.251536        -0.243398         0.535666
