19
Iteration:  3882charge 0 multiplicity 1
 O         4.293799         2.932201        -2.506858
 C         3.019442         2.447529        -2.421538
 C         2.137109         2.431420        -3.697458
 C         2.591326         1.139089        -3.119732
 C         1.881932         0.212253        -2.198804
 C         1.415573         1.167890        -0.860343
 C         2.444030         2.339655        -0.972583
 C         1.360480         0.404634         0.441760
 O         0.328527         0.323407         1.044034
 H         4.254407         3.879344        -2.514833
 H         1.123250         2.687716        -3.932461
 H         2.819306         2.665954        -4.567873
 H         3.366308         0.830674        -3.863557
 H         0.890240        -0.223319        -2.488223
 H         2.515757        -0.558169        -1.734912
 H         0.517918         1.560807        -1.129961
 H         2.142206         3.263548        -0.470336
 H         3.354735         1.966980        -0.547413
 H         2.369249         0.131864         0.936145
