19
Iteration:  4684
 O         4.330207         2.958334        -2.595919
 C         3.039708         2.412990        -2.452735
 C         1.985930         2.379335        -3.467338
 C         2.579755         1.147645        -3.148388
 C         1.978539         0.169942        -2.069750
 C         1.512632         1.137379        -0.986545
 C         2.552709         2.323441        -0.968456
 C         1.284234         0.478257         0.370121
 O         0.245472         0.389031         1.007970
 H         4.316786         3.841499        -2.232211
 H         0.912794         2.737464        -3.427679
 H         2.276728         2.865026        -4.451868
 H         3.385866         0.549715        -3.812097
 H         1.211923        -0.558528        -2.505781
 H         2.759724        -0.599729        -1.680066
 H         0.525489         1.585808        -1.257752
 H         2.120633         3.263941        -0.534935
 H         3.457426         2.318235        -0.358443
 H         2.130073        -0.140591         0.675159
