19
Iteration:  4850charge 0 multiplicity 1
 O         4.347809         2.940980        -2.375772
 C         3.093783         2.319604        -2.396182
 C         2.017295         2.337410        -3.510012
 C         2.676424         1.119107        -3.086697
 C         1.844596         0.116956        -2.260106
 C         1.296289         1.097831        -1.085226
 C         2.307018         2.410683        -0.994067
 C         1.405563         0.434539         0.269659
 O         0.520520         0.538415         1.084241
 H         4.339349         3.929055        -2.387604
 H         1.006285         2.504159        -3.273328
 H         2.302948         2.841457        -4.385971
 H         3.412994         0.803209        -3.732559
 H         0.920204        -0.418201        -2.836130
 H         2.619069        -0.470869        -1.724078
 H         0.288375         1.383233        -1.474827
 H         1.736394         3.402999        -0.853575
 H         2.856867         2.399652        -0.058451
 H         2.455554        -0.071179         0.481669
