19
Iteration:  3266
 O         4.355628         2.933304        -2.542441
 C         3.050438         2.415236        -2.448302
 C         1.975132         2.503785        -3.544623
 C         2.584971         1.161822        -3.190559
 C         2.012120         0.234459        -2.172285
 C         1.506179         1.082541        -0.918159
 C         2.480589         2.264459        -1.004124
 C         1.234674         0.373340         0.320896
 O         0.290961         0.414534         1.150962
 H         4.557762         3.828029        -2.248982
 H         0.991575         2.915272        -3.180297
 H         2.204665         2.768570        -4.553729
 H         3.537303         0.977353        -3.793189
 H         1.201766        -0.339171        -2.654443
 H         2.647879        -0.587547        -1.852885
 H         0.557604         1.532481        -1.107392
 H         1.921659         3.143669        -0.785833
 H         3.351712         2.144928        -0.291367
 H         2.065308        -0.369230         0.552912
