19
Iteration:  1507
 O         4.378301         2.932267        -2.548686
 C         3.068461         2.334600        -2.383320
 C         1.982311         2.752520        -3.386930
 C         2.509736         1.218758        -3.212755
 C         1.769476         0.330773        -2.259939
 C         1.444191         1.147423        -0.987990
 C         2.619433         2.179963        -0.903095
 C         1.351220         0.398269         0.352006
 O         0.355072         0.159126         1.078329
 H         4.495969         3.217552        -3.445969
 H         1.040987         3.129754        -3.035989
 H         2.313593         3.327358        -4.213634
 H         3.020197         0.681639        -4.011262
 H         0.957421        -0.284884        -2.615589
 H         2.565540        -0.518757        -2.039493
 H         0.410165         1.617650        -1.201752
 H         2.191445         3.189071        -0.736830
 H         3.562304         1.825031        -0.337660
 H         2.285018         0.008055         0.888161
