19
Iteration:  2263
 O         4.443568         2.973062        -2.617819
 C         3.166192         2.355570        -2.373868
 C         1.951341         2.448823        -3.381733
 C         2.597965         1.100410        -3.093396
 C         1.881984         0.184474        -2.108394
 C         1.403433         1.237465        -1.047713
 C         2.527906         2.360883        -0.968224
 C         1.279573         0.511350         0.324578
 O         0.331400         0.250708         0.996967
 H         4.066728         3.883760        -2.599283
 H         0.940564         2.488772        -2.931630
 H         1.977034         2.774065        -4.417133
 H         3.197237         0.672280        -3.908530
 H         0.856826        -0.203113        -2.587207
 H         2.488759        -0.762132        -1.803365
 H         0.363426         1.541471        -1.341288
 H         1.990686         3.342782        -0.823788
 H         3.249091         2.136696        -0.167743
 H         2.294585         0.162884         0.630704
