19
Iteration:  1194
 O         4.268170         2.810705        -2.507350
 C         2.982687         2.424752        -2.350520
 C         1.950752         2.559247        -3.520076
 C         2.541280         1.266033        -3.165129
 C         1.760910         0.271896        -2.211694
 C         1.568157         1.189954        -0.940582
 C         2.630924         2.317564        -0.932171
 C         1.407509         0.348867         0.351347
 O         0.375261         0.252175         0.954729
 H         4.583760         3.423875        -1.776038
 H         0.920633         2.829311        -3.428644
 H         2.440021         3.000472        -4.344946
 H         3.408796         0.894547        -3.822911
 H         0.765133        -0.024479        -2.690593
 H         2.491757        -0.522224        -2.080161
 H         0.633460         1.641798        -1.136321
 H         2.039697         3.141348        -0.566972
 H         3.477291         2.344915        -0.264181
 H         2.349251        -0.275245         0.509269
