19
Iteration:  3649
 O         4.252695         2.926506        -2.547585
 C         2.996699         2.393611        -2.382728
 C         2.084801         2.488517        -3.529899
 C         2.677546         1.111632        -3.205936
 C         1.907628         0.249080        -2.197474
 C         1.401290         1.147245        -0.948249
 C         2.513379         2.293823        -0.938204
 C         1.339778         0.393078         0.411944
 O         0.335139         0.448268         1.044325
 H         3.988705         3.901376        -2.417028
 H         0.975798         2.400715        -3.486308
 H         2.501932         2.892954        -4.484406
 H         3.520257         0.606402        -3.814150
 H         1.119537        -0.406173        -2.658513
 H         2.699680        -0.415433        -1.844277
 H         0.525838         1.558695        -1.210683
 H         2.080271         3.112492        -0.383829
 H         3.376506         1.662091        -0.412128
 H         2.263582        -0.218958         0.585141
