19
Iteration:  4549
 O         4.426549         2.835323        -2.660206
 C         3.062128         2.335236        -2.398762
 C         2.005372         2.339356        -3.455444
 C         2.728350         1.090176        -3.035677
 C         1.831715         0.336214        -2.052553
 C         1.296871         1.321246        -0.980934
 C         2.367573         2.431374        -0.879684
 C         1.373710         0.602284         0.317357
 O         0.395909         0.140062         0.896731
 H         4.453870         3.811872        -2.653122
 H         1.008301         2.499144        -3.075581
 H         2.077364         2.773708        -4.517940
 H         3.431205         0.478877        -3.676828
 H         0.985613        -0.115483        -2.581491
 H         2.451472        -0.470235        -1.668599
 H         0.281660         1.744557        -1.102190
 H         2.072353         3.421388        -0.840347
 H         3.065033         2.299129        -0.039775
 H         2.544345         0.475842         0.527564
