19
Iteration:   325charge 0 multiplicity 1
 O         4.221926         3.108373        -2.547832
 C         3.083633         2.375318        -2.453425
 C         1.958653         2.464630        -3.375455
 C         2.650307         1.140449        -3.197591
 C         1.902551         0.194019        -2.120396
 C         1.372109         1.222945        -1.000560
 C         2.654967         2.159919        -0.968978
 C         1.298174         0.472643         0.296720
 O         0.360756         0.331150         1.010870
 H         4.616793         3.077813        -1.655584
 H         0.966951         2.679135        -3.155847
 H         2.133924         3.085258        -4.160128
 H         3.019679         0.592643        -4.085377
 H         1.051638        -0.432987        -2.592019
 H         2.626039        -0.570848        -1.795752
 H         0.370788         1.738342        -1.203730
 H         2.639794         3.187210        -0.508812
 H         3.459860         1.531597        -0.515492
 H         2.257107        -0.260994         0.428735
