19
Iteration:  3070charge 0 multiplicity 1
 O         4.336411         3.012697        -2.463404
 C         2.987632         2.453128        -2.361346
 C         2.119952         2.405093        -3.601296
 C         2.681388         1.143525        -3.147406
 C         1.866166         0.216780        -2.255951
 C         1.325935         1.048382        -1.060737
 C         2.340439         2.266845        -0.951185
 C         1.250022         0.266520         0.291992
 O         0.556406         0.567480         1.207970
 H         4.274305         3.941543        -2.287918
 H         1.074770         2.360188        -3.716293
 H         2.609171         2.792567        -4.493925
 H         3.631382         0.731433        -3.676551
 H         1.031458        -0.208985        -2.831605
 H         2.397591        -0.657037        -1.742260
 H         0.358740         1.529239        -1.302557
 H         1.805677         3.138215        -0.514317
 H         3.230376         2.095172        -0.291434
 H         1.963246        -0.591280         0.316661
