19
Iteration:  3186
 O         4.261089         3.087722        -2.267454
 C         3.044684         2.351352        -2.373584
 C         1.999584         2.377338        -3.480702
 C         2.728859         1.055769        -3.122462
 C         1.807339         0.169760        -2.316327
 C         1.348020         1.051842        -1.133047
 C         2.413824         2.102403        -1.005173
 C         1.354854         0.401571         0.232537
 O         0.568859         0.711690         1.095157
 H         4.153162         3.995900        -2.582811
 H         0.971021         2.441263        -3.206931
 H         2.244944         3.142882        -4.253151
 H         3.268836         0.509212        -3.941888
 H         1.012361        -0.186449        -3.012083
 H         2.366543        -0.676459        -1.958902
 H         0.365678         1.520550        -1.174178
 H         2.020273         2.920683        -0.473816
 H         3.240777         1.759093        -0.380647
 H         2.234054        -0.317129         0.469000
