19
Iteration:  2912
 O         4.283000         3.036325        -2.427744
 C         3.080706         2.313976        -2.341527
 C         1.973391         2.439093        -3.444286
 C         2.595585         1.003540        -3.149185
 C         1.861728         0.266147        -2.099604
 C         1.447557         1.301543        -1.045880
 C         2.633226         2.273674        -0.986764
 C         1.360712         0.552428         0.347279
 O         0.331756         0.251547         0.881942
 H         4.252867         3.379499        -3.319711
 H         0.919397         2.576587        -3.097031
 H         2.040594         2.989881        -4.433704
 H         3.249860         0.411051        -3.869546
 H         0.871779        -0.226476        -2.465807
 H         2.260985        -0.653740        -1.634973
 H         0.480151         1.755732        -1.293544
 H         2.303602         3.267034        -0.610498
 H         3.496668         1.860845        -0.354885
 H         2.370138         0.238352         0.787750
