19
Iteration:  1873
 O         4.314769         3.078706        -2.540006
 C         3.016452         2.317561        -2.303305
 C         1.982190         2.554837        -3.465678
 C         2.651559         1.172330        -3.201188
 C         1.731896         0.280564        -2.243027
 C         1.395977         1.179389        -1.015944
 C         2.545786         2.154672        -0.831273
 C         1.349926         0.333156         0.246615
 O         0.453895         0.389237         1.055589
 H         4.846450         2.248581        -2.654601
 H         0.841627         2.653045        -3.345261
 H         2.466314         3.312351        -4.205715
 H         3.344807         0.796851        -3.884383
 H         0.792792         0.050409        -2.799595
 H         2.303367        -0.644129        -1.898144
 H         0.474064         1.751688        -1.141698
 H         2.299277         3.130327        -0.454860
 H         3.449135         1.741398        -0.289432
 H         2.311158        -0.418648         0.525503
