19
Iteration:  1597charge 0 multiplicity 1
 O         4.430970         2.840915        -2.655409
 C         3.109160         2.450095        -2.423984
 C         2.118167         2.685033        -3.512646
 C         2.525229         1.254450        -3.067228
 C         1.592855         0.390144        -2.159564
 C         1.386943         1.262054        -0.775552
 C         2.612776         2.325536        -0.959664
 C         1.345995         0.406808         0.414404
 O         0.384988        -0.085979         0.975534
 H         4.148116         3.470541        -3.328815
 H         1.158990         2.938689        -3.223285
 H         2.465190         2.987954        -4.470392
 H         3.195361         0.701009        -3.758850
 H         0.703821         0.169267        -2.728007
 H         2.082633        -0.678067        -2.031104
 H         0.425354         1.738547        -1.043338
 H         2.179958         3.271281        -0.683746
 H         3.431748         1.904519        -0.247321
 H         2.380493         0.122223         0.542093
