19
Iteration:  4478charge 0 multiplicity 1
 O         4.336403         2.867341        -2.506769
 C         2.976580         2.444249        -2.436922
 C         2.109187         2.429115        -3.625308
 C         2.631689         1.090475        -3.075103
 C         1.820813         0.202726        -2.182951
 C         1.431683         1.264195        -0.978152
 C         2.493101         2.392597        -0.959942
 C         1.332557         0.543230         0.387700
 O         0.370550         0.182512         1.053332
 H         4.331782         3.813708        -2.774463
 H         1.141740         2.854032        -3.492252
 H         2.456626         2.673041        -4.581908
 H         3.363202         0.572493        -3.532737
 H         0.914968        -0.096299        -2.697358
 H         2.298012        -0.614324        -1.718371
 H         0.416105         1.520279        -1.075656
 H         1.941086         3.299914        -0.512285
 H         3.369129         2.238075        -0.302576
 H         2.424238         0.539911         0.725411
