19
Iteration:  3154charge 0 multiplicity 1
 O         4.199743         2.975857        -2.325802
 C         2.934092         2.378874        -2.369805
 C         2.182154         2.551395        -3.640034
 C         2.671545         1.143900        -3.178779
 C         1.850585         0.082519        -2.409291
 C         1.411440         0.950687        -1.080758
 C         2.306160         2.144170        -0.936496
 C         1.356818         0.351400         0.328623
 O         0.545850         0.731439         1.237333
 H         4.279879         3.900555        -2.737337
 H         1.158665         2.786396        -3.516689
 H         2.806460         3.313733        -4.145340
 H         3.441392         0.545618        -3.752881
 H         1.055823        -0.422715        -3.023608
 H         2.587035        -0.630794        -2.116610
 H         0.440326         1.394731        -1.192098
 H         1.840401         2.982641        -0.536069
 H         3.320614         1.980818        -0.424919
 H         2.099802        -0.386386         0.645552
