19
Iteration:  1304
 O         4.281743         2.956938        -2.430779
 C         2.968142         2.399556        -2.363681
 C         2.056727         2.649195        -3.490792
 C         2.612443         1.172823        -3.186126
 C         1.712661         0.317155        -2.301428
 C         1.477946         1.124101        -0.949832
 C         2.522038         2.215909        -0.962446
 C         1.400911         0.352280         0.370598
 O         0.454362         0.297285         1.061788
 H         4.732430         2.486549        -3.135440
 H         0.982023         2.786566        -3.333087
 H         2.438363         3.295768        -4.293743
 H         3.248547         0.676309        -3.941518
 H         0.706285         0.032801        -2.768789
 H         2.320098        -0.618498        -2.238313
 H         0.531167         1.632886        -1.123934
 H         2.062952         3.114078        -0.569117
 H         3.416885         2.043835        -0.326201
 H         2.288556        -0.278064         0.582777
