19
Iteration:    69charge 0 multiplicity 1
 O         4.356984         3.008145        -2.313943
 C         3.025054         2.396081        -2.435396
 C         2.160574         2.564849        -3.630325
 C         2.595187         1.155525        -3.239060
 C         1.782496         0.212238        -2.244234
 C         1.316464         1.018135        -0.960339
 C         2.208289         2.291557        -1.101014
 C         1.511536         0.394354         0.445061
 O         0.501395         0.394142         1.141296
 H         4.989498         2.698309        -2.979675
 H         1.127483         2.931359        -3.402986
 H         2.489359         2.930136        -4.626135
 H         3.269185         0.571468        -3.963512
 H         0.974746        -0.345207        -2.744095
 H         2.503402        -0.589115        -1.913311
 H         0.345197         1.331098        -1.019591
 H         1.489357         3.107519        -0.962621
 H         2.880073         2.383520        -0.214213
 H         2.520623         0.165586         0.917679
