19
Iteration:  3146
 O         4.243196         2.914738        -2.362547
 C         2.892959         2.460118        -2.351801
 C         2.146645         2.572176        -3.628835
 C         2.735391         1.185865        -3.181753
 C         1.839485         0.155647        -2.322452
 C         1.393464         0.910976        -1.126324
 C         2.295114         2.179756        -0.987152
 C         1.333529         0.313932         0.380229
 O         0.571542         0.705791         1.227172
 H         4.415208         3.853713        -2.656295
 H         1.089066         2.719648        -3.702531
 H         2.797728         3.079686        -4.324440
 H         3.607633         0.691320        -3.789928
 H         1.045001        -0.484944        -2.711386
 H         2.507819        -0.646653        -1.890614
 H         0.406383         1.179029        -1.451057
 H         1.817345         3.131714        -0.649925
 H         3.120034         1.780064        -0.239376
 H         2.034704        -0.553232         0.544404
