19
Iteration:   393charge 0 multiplicity 1
 O         4.363165         2.969916        -2.740130
 C         3.115377         2.418412        -2.401217
 C         2.041866         2.534847        -3.393328
 C         2.538061         1.253215        -3.104191
 C         1.921588         0.270718        -2.111263
 C         1.499808         1.162581        -0.844234
 C         2.601853         2.375793        -0.921729
 C         1.263997         0.414333         0.364239
 O         0.205778         0.081790         0.950210
 H         4.459125         3.164609        -3.709192
 H         1.091645         2.792205        -2.958460
 H         2.125793         3.062548        -4.339182
 H         3.009194         0.723221        -3.943151
 H         1.087811        -0.407325        -2.461269
 H         2.706159        -0.484914        -1.693982
 H         0.529102         1.690286        -1.089130
 H         1.953040         3.228268        -0.672283
 H         3.462709         2.176490        -0.206294
 H         2.195404         0.071597         0.982947
