19
Iteration:  1058charge 0 multiplicity 1
 O         4.300703         2.980443        -2.556711
 C         3.090911         2.389855        -2.413595
 C         1.988291         2.567338        -3.372916
 C         2.557352         1.207882        -3.176810
 C         1.796572         0.303000        -2.092417
 C         1.439372         1.295706        -0.944401
 C         2.665115         2.197291        -0.942266
 C         1.323147         0.446264         0.345880
 O         0.339290         0.125881         0.918090
 H         4.458066         3.196395        -3.464683
 H         1.003861         2.708744        -2.903307
 H         2.187961         3.157819        -4.357711
 H         3.314383         0.703821        -3.713290
 H         0.750159        -0.083484        -2.521326
 H         2.426636        -0.487901        -1.792511
 H         0.416599         1.683668        -1.280246
 H         2.664171         3.091025        -0.246244
 H         3.408122         1.561947        -0.523994
 H         2.313486        -0.113139         0.513814
