19
Iteration:  1625charge 0 multiplicity 1
 O         4.366256         2.698642        -2.586351
 C         3.051228         2.402635        -2.353021
 C         1.990492         2.623488        -3.497739
 C         2.481562         1.253789        -3.143436
 C         1.661625         0.431839        -2.110909
 C         1.411943         1.341709        -0.914312
 C         2.614338         2.328413        -0.891209
 C         1.445508         0.469873         0.309808
 O         0.460180        -0.026099         0.860001
 H         4.444123         3.505338        -2.018103
 H         0.865549         2.763803        -3.272113
 H         2.394580         3.072551        -4.431812
 H         3.137898         0.677975        -3.779336
 H         0.750981        -0.138018        -2.448894
 H         2.271181        -0.403261        -1.829502
 H         0.463206         1.950042        -1.000619
 H         2.146811         3.304157        -0.567196
 H         3.412765         1.939152        -0.264000
 H         2.528533         0.337085         0.765750
