19
Iteration:  2734
 O         4.381142         2.852578        -2.591137
 C         3.026498         2.358476        -2.384661
 C         2.159317         2.467776        -3.665104
 C         2.619985         1.155702        -3.095803
 C         1.646404         0.293095        -2.120815
 C         1.486663         1.317810        -0.781295
 C         2.513851         2.457329        -0.985325
 C         1.371415         0.562048         0.527996
 O         0.322782        -0.035566         0.906356
 H         4.175181         3.594706        -3.183159
 H         1.113437         2.605129        -3.766825
 H         2.744657         2.854846        -4.462556
 H         3.272713         0.748089        -3.825280
 H         0.563252         0.166927        -2.524047
 H         2.354013        -0.594518        -2.022913
 H         0.454162         1.711042        -1.030728
 H         2.105530         3.495219        -0.737196
 H         3.420397         2.276170        -0.408125
 H         2.161737         0.712011         1.313462
