19
Iteration:  1563
 O         4.337147         2.927705        -2.487708
 C         3.062949         2.383299        -2.326362
 C         2.037461         2.531272        -3.415685
 C         2.450240         1.150381        -3.181445
 C         1.613940         0.383970        -2.199059
 C         1.467371         1.324901        -0.813342
 C         2.656274         2.333362        -0.939682
 C         1.466013         0.390462         0.280920
 O         0.404238         0.088004         0.884246
 H         4.630151         2.913149        -3.431823
 H         1.048601         2.766323        -3.136024
 H         2.281045         2.986730        -4.292498
 H         2.920904         0.712335        -4.033631
 H         0.635981         0.223637        -2.605925
 H         2.218237        -0.604212        -2.105573
 H         0.399233         1.657719        -1.009606
 H         2.576553         3.350531        -0.530366
 H         3.483898         2.012925        -0.193669
 H         2.408602        -0.238040         0.469207
