19
Iteration:  4884charge 0 multiplicity 1
 O         4.244841         2.920136        -2.418183
 C         3.007734         2.369770        -2.292528
 C         2.122290         2.373819        -3.668185
 C         2.705045         1.088457        -3.052149
 C         1.799255         0.207740        -2.225156
 C         1.340436         1.120884        -1.066925
 C         2.356424         2.351776        -0.987916
 C         1.385230         0.475529         0.288670
 O         0.510988         0.462225         1.116233
 H         4.325339         3.904186        -2.552156
 H         1.086183         2.606279        -3.583689
 H         2.620559         2.789329        -4.498525
 H         3.527558         0.790730        -3.635632
 H         1.067319        -0.342356        -2.954051
 H         2.470432        -0.663744        -1.866401
 H         0.291475         1.506601        -1.182856
 H         1.878300         3.354667        -0.750967
 H         3.069033         2.032870        -0.243304
 H         2.488570         0.055810         0.491716
