19
Iteration:  4115charge 0 multiplicity 1
 O         4.430998         2.988893        -2.550094
 C         3.095833         2.395935        -2.435253
 C         2.075640         2.433019        -3.520446
 C         2.640169         1.046035        -3.042864
 C         1.802448         0.200315        -2.119748
 C         1.340005         1.312115        -0.910011
 C         2.411594         2.342975        -1.021524
 C         1.340798         0.556862         0.350985
 O         0.380979         0.148108         0.978125
 H         4.211750         3.923071        -2.860449
 H         1.060609         2.661233        -3.246559
 H         2.544902         2.651288        -4.543308
 H         3.141393         0.510825        -3.783801
 H         0.883859        -0.161197        -2.629024
 H         2.298301        -0.587298        -1.504000
 H         0.324762         1.509763        -1.165872
 H         2.034493         3.356010        -0.797455
 H         3.195910         2.106207        -0.354875
 H         2.355838         0.392906         0.757272
