19
Iteration:  3475
 O         4.373149         2.816060        -2.580266
 C         3.004784         2.437875        -2.426716
 C         2.069591         2.433789        -3.651805
 C         2.649356         1.158355        -3.064393
 C         1.770829         0.341545        -2.040747
 C         1.480458         1.314277        -0.900718
 C         2.480425         2.453616        -0.963457
 C         1.291712         0.503370         0.384543
 O         0.349744         0.020686         0.960335
 H         4.471188         3.767344        -2.594572
 H         0.908581         2.499121        -3.724209
 H         2.599138         2.701141        -4.617909
 H         3.522145         0.752963        -3.519969
 H         0.858089        -0.193322        -2.406596
 H         2.354099        -0.538706        -1.688763
 H         0.478288         1.856177        -1.052184
 H         1.986902         3.277407        -0.569875
 H         3.400313         2.336895        -0.416731
 H         2.402526         0.432844         0.800241
