19
Iteration:  4314
 O         4.307444         2.938926        -2.589858
 C         2.940431         2.409479        -2.411567
 C         1.997728         2.487468        -3.547918
 C         2.723903         1.122702        -3.116933
 C         2.009829         0.154846        -2.140267
 C         1.493395         1.135922        -0.951507
 C         2.466273         2.251222        -0.933755
 C         1.252175         0.380672         0.264712
 O         0.335394         0.520425         1.096162
 H         4.138093         3.839318        -2.311349
 H         0.838125         2.572977        -3.476356
 H         2.453179         3.136005        -4.357712
 H         3.569609         0.777647        -3.716288
 H         1.073145        -0.276151        -2.581773
 H         2.691597        -0.695003        -1.883035
 H         0.392162         1.549008        -1.033230
 H         2.121143         3.169390        -0.352088
 H         3.338847         1.790188        -0.485703
 H         2.008622        -0.506948         0.475881
