19
Iteration:  3617charge 0 multiplicity 1
 O         4.384043         2.937114        -2.585217
 C         3.130385         2.402275        -2.383440
 C         1.905562         2.393658        -3.352804
 C         2.621274         1.109042        -3.007667
 C         1.882663         0.187755        -2.144622
 C         1.376760         1.220225        -1.079652
 C         2.463218         2.346195        -0.939779
 C         1.386778         0.513058         0.248641
 O         0.373214         0.368574         0.944547
 H         4.375589         3.781477        -2.158046
 H         0.789652         2.344639        -3.191660
 H         1.954365         2.576413        -4.455885
 H         3.367372         0.583023        -3.724276
 H         1.141754        -0.349328        -2.778621
 H         2.455789        -0.587139        -1.695030
 H         0.493519         1.588432        -1.439835
 H         1.994644         3.178422        -0.424373
 H         3.272564         2.052117        -0.113395
 H         2.358350        -0.111944         0.472429
