19
Iteration:  4998charge 0 multiplicity 1
 O         4.367354         2.937887        -2.551621
 C         3.017921         2.372841        -2.399631
 C         2.025829         2.399245        -3.593665
 C         2.599057         1.139604        -3.142476
 C         1.958173         0.236932        -2.096597
 C         1.425376         1.135291        -0.985480
 C         2.481984         2.304803        -0.982304
 C         1.277885         0.604502         0.411759
 O         0.304626         0.271477         1.046448
 H         4.176828         3.927431        -2.633945
 H         0.939123         2.735359        -3.481999
 H         2.506287         2.608025        -4.553452
 H         3.278755         0.524930        -3.699711
 H         1.286284        -0.357976        -2.649729
 H         2.926206        -0.289822        -1.634703
 H         0.424872         1.433827        -1.127394
 H         2.123652         3.273791        -0.768973
 H         3.327111         2.003086        -0.372407
 H         2.334746         0.476091         0.800845
