19
Iteration:  1526charge 0 multiplicity 1
 O         4.362966         2.885408        -2.435905
 C         3.040938         2.466029        -2.384878
 C         1.959466         2.594564        -3.376554
 C         2.465531         1.278888        -3.144414
 C         1.771226         0.259202        -2.204231
 C         1.372978         1.266144        -0.982201
 C         2.634391         2.166295        -0.933092
 C         1.434291         0.473382         0.265026
 O         0.425200         0.160158         0.946464
 H         4.635682         2.899388        -3.346857
 H         0.913546         2.827561        -3.044934
 H         2.226324         2.994074        -4.437796
 H         2.982327         0.806497        -4.013607
 H         0.772855        -0.140044        -2.448247
 H         2.384311        -0.543943        -1.901018
 H         0.382191         1.759348        -1.026773
 H         2.586883         3.098295        -0.315834
 H         3.437126         1.474385        -0.673785
 H         2.438218         0.049876         0.503406
