19
Iteration:  1010charge 0 multiplicity 1
 O         4.353382         2.933379        -2.490702
 C         3.043853         2.322043        -2.424781
 C         2.048683         2.651625        -3.408044
 C         2.494704         1.156911        -3.210436
 C         1.720870         0.268224        -2.225018
 C         1.512167         1.292743        -0.815050
 C         2.577146         2.299509        -0.993101
 C         1.426462         0.435502         0.386652
 O         0.323902         0.091029         0.901598
 H         4.369773         3.364780        -3.397329
 H         1.109269         2.918501        -2.952650
 H         2.310207         3.105458        -4.298076
 H         3.159676         0.593164        -3.968706
 H         0.797114        -0.056171        -2.545136
 H         2.383096        -0.599650        -1.892816
 H         0.518398         1.647261        -0.861757
 H         2.311688         3.290053        -0.679049
 H         3.457909         2.114417        -0.300929
 H         2.373788         0.112310         0.932128
