19
Iteration:  3203charge 0 multiplicity 1
 O         4.258399         3.026622        -2.387816
 C         3.002531         2.374681        -2.317588
 C         2.008737         2.378424        -3.421896
 C         2.715455         1.093493        -3.144295
 C         1.848497         0.103910        -2.291967
 C         1.334104         1.136986        -1.149578
 C         2.492351         2.212490        -0.879956
 C         1.270822         0.389059         0.156896
 O         0.566664         0.632043         1.084997
 H         4.106348         3.932348        -2.642765
 H         0.930399         2.428894        -3.081518
 H         2.141983         2.650445        -4.452018
 H         3.648700         0.906615        -3.580616
 H         0.962954        -0.320978        -2.760827
 H         2.476664        -0.687836        -1.785893
 H         0.310050         1.604630        -1.335999
 H         2.275541         3.301333        -0.480015
 H         3.389014         1.812370        -0.315076
 H         2.007449        -0.417221         0.199276
