19
Iteration:  1256
 O         4.281658         2.955734        -2.425370
 C         3.115080         2.332583        -2.373240
 C         2.053733         2.563389        -3.413219
 C         2.564630         1.124932        -3.223314
 C         1.751015         0.334286        -2.187954
 C         1.342304         1.257004        -1.007407
 C         2.547945         2.280174        -0.946948
 C         1.362259         0.356494         0.218620
 O         0.480061         0.218154         1.091952
 H         4.528689         3.377490        -3.296358
 H         1.016776         2.934328        -3.118012
 H         2.442025         3.036800        -4.329201
 H         3.242549         0.799766        -4.079029
 H         0.803926        -0.094284        -2.641472
 H         2.238037        -0.588065        -1.868839
 H         0.346437         1.868225        -1.202107
 H         2.224601         3.311476        -0.596171
 H         3.341301         1.798005        -0.374060
 H         2.302047        -0.208958         0.386101
