19
Iteration:  4713
 O         4.255988         2.944343        -2.576424
 C         3.006773         2.442314        -2.482721
 C         2.036159         2.433416        -3.553822
 C         2.699185         1.126864        -3.166874
 C         1.989152         0.251962        -2.079771
 C         1.456972         1.091495        -0.980326
 C         2.511991         2.197401        -0.948531
 C         1.276058         0.392831         0.415934
 O         0.260689         0.475208         1.065903
 H         4.107458         3.920740        -2.485973
 H         0.912804         2.749583        -3.574782
 H         2.474178         2.928842        -4.420769
 H         3.517842         0.740033        -3.772815
 H         1.234458        -0.266054        -2.663061
 H         2.660240        -0.427519        -1.585064
 H         0.446130         1.456501        -1.214019
 H         2.367093         3.147643        -0.419156
 H         3.565300         1.927741        -0.602662
 H         2.238724        -0.117485         0.793686
