19
Iteration:  4564
 O         4.305328         2.829002        -2.635664
 C         3.052584         2.410979        -2.360988
 C         2.051272         2.380032        -3.477274
 C         2.738084         1.044606        -2.971595
 C         1.793984         0.296185        -2.076543
 C         1.358885         1.333756        -0.964803
 C         2.486599         2.465279        -1.029037
 C         1.395132         0.564407         0.346809
 O         0.370809         0.152298         0.885400
 H         4.376883         3.820226        -2.665892
 H         0.921843         2.372832        -3.324631
 H         2.333684         2.823402        -4.417697
 H         3.416322         0.625379        -3.632064
 H         0.898566        -0.181760        -2.561344
 H         2.234404        -0.607059        -1.518362
 H         0.332206         1.621417        -1.169987
 H         2.048548         3.363600        -0.468214
 H         3.289077         2.129939        -0.349754
 H         2.330144         0.387937         0.838724
