19
Iteration:  2445charge 0 multiplicity 1
 O         4.298653         2.967615        -2.448119
 C         2.978833         2.350337        -2.384485
 C         2.167632         2.544671        -3.579760
 C         2.657851         1.146250        -3.121911
 C         1.823856         0.239034        -2.256578
 C         1.382668         1.142414        -1.045071
 C         2.330548         2.288633        -1.061341
 C         1.353938         0.331392         0.373250
 O         0.452497         0.429425         1.221405
 H         4.633064         2.978547        -3.345633
 H         1.133785         2.883163        -3.450431
 H         2.852806         3.067131        -4.342424
 H         3.327953         0.567542        -3.761885
 H         0.936570        -0.247832        -2.662031
 H         2.509114        -0.640426        -1.833322
 H         0.344215         1.548870        -1.135425
 H         1.969856         3.281362        -0.757847
 H         3.197720         2.052659        -0.515630
 H         2.245247        -0.342118         0.688971
