19
Iteration:  2246
 O         4.286114         2.982830        -2.610512
 C         3.039828         2.310361        -2.400642
 C         2.025204         2.452183        -3.397523
 C         2.659268         1.082355        -3.109419
 C         1.863773         0.255756        -2.114667
 C         1.467286         1.239814        -0.901488
 C         2.589993         2.336005        -0.973965
 C         1.308581         0.428064         0.352751
 O         0.266119         0.279378         0.935197
 H         4.302111         3.667420        -3.323755
 H         1.074355         2.838601        -3.140007
 H         2.481347         2.965176        -4.280346
 H         3.231361         0.627760        -3.904915
 H         1.126008        -0.300675        -2.563011
 H         2.602434        -0.373114        -1.655938
 H         0.495746         1.693013        -1.151726
 H         2.166396         3.294826        -0.673944
 H         3.425991         2.138043        -0.262584
 H         2.320489         0.001603         0.634640
