19
Iteration:  4263charge 0 multiplicity 1
 O         4.279264         2.980803        -2.454813
 C         3.008007         2.419304        -2.402801
 C         2.027604         2.449100        -3.470961
 C         2.762863         1.079109        -3.142054
 C         1.841378         0.187963        -2.114522
 C         1.398441         1.174346        -1.078841
 C         2.495204         2.206919        -1.024418
 C         1.327808         0.444400         0.320525
 O         0.402841         0.462258         1.067403
 H         4.092146         3.894615        -2.811972
 H         1.048744         2.505945        -3.226656
 H         2.364715         2.948718        -4.396210
 H         3.433508         0.666471        -3.783734
 H         0.955408        -0.290752        -2.471140
 H         2.388695        -0.756992        -1.907478
 H         0.423863         1.572227        -1.261750
 H         1.952987         3.093665        -0.813408
 H         3.327695         2.030374        -0.310890
 H         2.280725        -0.273639         0.478152
