19
Iteration:  1841charge 0 multiplicity 1
 O         4.361038         3.004043        -2.590305
 C         3.055057         2.317125        -2.428769
 C         1.957668         2.592773        -3.293207
 C         2.546960         1.168807        -3.140671
 C         1.814222         0.224197        -2.162793
 C         1.433801         1.192012        -1.067131
 C         2.537578         2.206231        -0.902420
 C         1.345027         0.293683         0.248250
 O         0.418538         0.390145         0.983730
 H         4.593439         3.104337        -1.646015
 H         1.101200         3.149552        -2.773514
 H         2.211777         3.050297        -4.324393
 H         2.944367         0.927700        -4.059398
 H         0.936889        -0.143886        -2.777516
 H         2.370555        -0.736580        -1.873624
 H         0.471058         1.646344        -1.173680
 H         2.374615         3.196800        -0.476419
 H         3.562152         1.846484        -0.314533
 H         2.192789        -0.276055         0.410874
