19
Iteration:   906
 O         4.413234         2.928075        -2.497758
 C         3.104094         2.348488        -2.462815
 C         2.046179         2.523661        -3.527946
 C         2.473346         1.198335        -3.132450
 C         1.663226         0.374310        -2.133979
 C         1.465534         1.317262        -0.872490
 C         2.552267         2.312867        -1.069306
 C         1.387482         0.369442         0.325735
 O         0.424966         0.047677         0.976785
 H         4.311928         3.552663        -1.723812
 H         1.118931         3.083832        -3.123681
 H         2.350210         2.850163        -4.508048
 H         3.010635         0.600561        -3.850463
 H         0.548695         0.126471        -2.394486
 H         2.119786        -0.618465        -1.901668
 H         0.415732         1.837149        -0.832401
 H         2.046427         3.341887        -0.838318
 H         3.441858         2.074121        -0.369974
 H         2.442472         0.201885         0.683363
