19
Iteration:  2031
 O         4.347922         3.048342        -2.374145
 C         3.058773         2.379555        -2.460188
 C         2.159023         2.549714        -3.628987
 C         2.570738         1.094180        -3.151348
 C         1.595726         0.300758        -2.136203
 C         1.362834         1.223394        -0.914638
 C         2.415100         2.295896        -0.932624
 C         1.435315         0.365987         0.295694
 O         0.495163         0.249349         1.021100
 H         4.937965         2.603998        -2.998195
 H         1.120714         2.700801        -3.599308
 H         2.559543         2.711884        -4.589480
 H         3.157638         0.657243        -3.937076
 H         0.635798        -0.145853        -2.555170
 H         2.213791        -0.593955        -1.742507
 H         0.345940         1.581101        -0.961596
 H         2.156595         3.341325        -0.590941
 H         3.231592         2.075440        -0.214279
 H         2.497038        -0.193108         0.319351
