19
Iteration:  2384charge 0 multiplicity 1
 O         4.252514         2.925374        -2.411845
 C         3.012393         2.306262        -2.318445
 C         2.078713         2.396795        -3.561349
 C         2.712853         1.070019        -3.068077
 C         1.731351         0.265880        -2.208596
 C         1.298970         1.251037        -1.060369
 C         2.352202         2.276781        -0.865053
 C         1.468608         0.475578         0.214774
 O         0.561840         0.407302         1.018059
 H         4.612581         3.230178        -3.252105
 H         1.090567         2.671247        -3.288745
 H         2.425669         3.032896        -4.392206
 H         3.548937         0.683383        -3.621347
 H         0.860243        -0.073384        -2.872735
 H         2.159739        -0.589497        -1.815138
 H         0.363192         1.773553        -1.230486
 H         1.893102         3.295967        -0.726191
 H         3.137552         2.056426        -0.041694
 H         2.534951         0.094322         0.289119
