19
Iteration:  3970
 O         4.302083         2.944330        -2.621093
 C         2.949113         2.387977        -2.389408
 C         2.057487         2.391155        -3.605650
 C         2.629019         1.144308        -3.120758
 C         1.871653         0.323404        -2.044216
 C         1.498887         1.196868        -0.870306
 C         2.614191         2.324341        -0.914442
 C         1.328747         0.452000         0.459946
 O         0.210619         0.228905         0.880663
 H         4.271781         3.677011        -3.218983
 H         0.985366         2.746825        -3.315201
 H         2.503853         2.770843        -4.545060
 H         3.539540         0.684221        -3.736557
 H         1.127745        -0.393646        -2.548931
 H         2.782957        -0.267612        -1.635397
 H         0.597494         1.761108        -1.045536
 H         2.383052         3.370325        -0.630313
 H         3.482708         2.118716        -0.322998
 H         2.236847         0.120657         0.994582
