19
Iteration:  4754
 O         4.300555         3.067372        -2.549180
 C         3.013362         2.324954        -2.293916
 C         2.024298         2.318343        -3.411768
 C         2.752343         1.061402        -3.092203
 C         1.895169         0.217032        -2.183666
 C         1.375093         1.098929        -1.078181
 C         2.486493         2.248514        -0.959999
 C         1.327338         0.438442         0.234762
 O         0.409327         0.567004         1.021731
 H         4.199732         4.007522        -2.676325
 H         1.007159         2.466944        -3.090214
 H         2.160111         2.802799        -4.311203
 H         3.202571         0.611439        -3.876962
 H         0.993207        -0.210083        -2.631437
 H         2.377845        -0.819308        -1.859555
 H         0.387932         1.533673        -1.220724
 H         1.987016         3.175481        -0.567431
 H         3.109900         2.035685        -0.100125
 H         2.249692        -0.229327         0.525328
