19
Iteration:    47
 O         4.327884         2.829154        -2.293118
 C         2.976829         2.375540        -2.415488
 C         2.005058         2.570276        -3.550691
 C         2.571488         1.167668        -3.166323
 C         1.995440         0.169730        -2.189219
 C         1.392704         1.110943        -1.081375
 C         2.306093         2.455396        -1.108573
 C         1.380266         0.483102         0.329431
 O         0.498842         0.324584         1.176281
 H         4.764567         2.913605        -3.169341
 H         0.963934         2.764373        -3.285229
 H         2.327204         3.007719        -4.537886
 H         3.165700         0.699246        -4.008331
 H         1.232729        -0.497460        -2.622291
 H         2.815814        -0.515531        -1.859253
 H         0.435972         1.376802        -1.379628
 H         1.751903         3.398048        -0.992275
 H         3.025921         2.413580        -0.256636
 H         2.270662        -0.004208         0.518286
