19
Iteration:  3204charge 0 multiplicity 1
 O         4.253482         3.021656        -2.395938
 C         3.008674         2.373178        -2.316186
 C         2.005469         2.380682        -3.421343
 C         2.717396         1.098230        -3.141705
 C         1.852007         0.108451        -2.283939
 C         1.342154         1.136698        -1.157500
 C         2.489994         2.214356        -0.872210
 C         1.269125         0.386487         0.150394
 O         0.563011         0.628205         1.090952
 H         4.133961         3.952236        -2.648999
 H         0.925718         2.427082        -3.117432
 H         2.164399         2.653398        -4.463072
 H         3.615636         0.898297        -3.582326
 H         0.967974        -0.310041        -2.762503
 H         2.479087        -0.681297        -1.779104
 H         0.307943         1.606865        -1.332295
 H         2.296586         3.289217        -0.481490
 H         3.352765         1.835263        -0.321351
 H         1.994262        -0.428400         0.217275
