19
Iteration:  2271
 O         4.479812         2.974610        -2.615861
 C         3.072952         2.322001        -2.407776
 C         1.952750         2.441937        -3.384753
 C         2.664097         1.093663        -3.078145
 C         1.806855         0.209356        -2.131086
 C         1.429234         1.208263        -1.026980
 C         2.452184         2.359654        -0.981476
 C         1.331037         0.543397         0.311874
 O         0.334305         0.251345         1.008644
 H         4.394088         3.916578        -2.336268
 H         0.909968         2.645211        -2.938862
 H         1.993634         2.705390        -4.409248
 H         3.192223         0.722983        -3.977072
 H         0.976757        -0.360574        -2.660012
 H         2.494353        -0.465504        -1.705428
 H         0.483738         1.510852        -1.470747
 H         1.947505         3.279285        -0.492118
 H         3.241963         2.033185        -0.173418
 H         2.352373         0.262095         0.588425
