19
Iteration:  2412
 O         4.326264         3.045821        -2.277191
 C         3.018962         2.353695        -2.441522
 C         2.107497         2.401148        -3.714413
 C         2.570002         1.101813        -3.120241
 C         1.730296         0.227390        -2.284345
 C         1.395456         1.217347        -1.041199
 C         2.387174         2.315141        -1.011387
 C         1.384786         0.348466         0.375849
 O         0.477927         0.394645         1.201408
 H         4.818930         3.127296        -3.115500
 H         1.182410         2.970598        -3.492823
 H         2.525934         2.760060        -4.714836
 H         3.294374         0.580654        -3.766310
 H         0.912412        -0.223113        -2.844820
 H         2.464768        -0.616361        -1.862149
 H         0.431220         1.745612        -1.209848
 H         2.234869         3.317926        -0.602127
 H         3.234131         1.977190        -0.456854
 H         2.414715        -0.254021         0.476638
