19
Iteration:  2677charge 0 multiplicity 1
 O         4.329588         2.889561        -2.642851
 C         3.106240         2.279979        -2.400096
 C         2.041052         2.421855        -3.377100
 C         2.605063         1.035523        -3.087028
 C         1.754749         0.347209        -1.991765
 C         1.426128         1.434812        -0.998261
 C         2.535071         2.403020        -0.953517
 C         1.382142         0.543954         0.313717
 O         0.347017         0.103068         0.849825
 H         4.150619         3.751666        -2.193908
 H         1.025518         2.680316        -3.082043
 H         2.347160         2.659861        -4.430689
 H         3.234616         0.625500        -3.948030
 H         0.962907        -0.307598        -2.286260
 H         2.477247        -0.410840        -1.536960
 H         0.478354         1.915157        -1.300251
 H         2.115735         3.420208        -0.625776
 H         3.320601         2.119922        -0.215340
 H         2.372424         0.066178         0.559572
