19
Iteration:  3055charge 0 multiplicity 1
 O         4.229833         2.999437        -2.448818
 C         2.918614         2.435152        -2.381371
 C         2.154541         2.480764        -3.713680
 C         2.798963         1.155621        -3.056186
 C         1.853445         0.180909        -2.327944
 C         1.375267         1.019767        -1.010525
 C         2.401826         2.178053        -0.960658
 C         1.285790         0.314149         0.320471
 O         0.475732         0.603146         1.239153
 H         4.148308         3.949559        -2.742828
 H         1.145185         2.860728        -3.476799
 H         2.733933         2.977396        -4.475868
 H         3.559454         0.723625        -3.577097
 H         0.919939        -0.153157        -2.831342
 H         2.477239        -0.698799        -2.312051
 H         0.350044         1.300237        -1.070222
 H         2.008121         3.024861        -0.429191
 H         3.308318         1.663693        -0.378688
 H         2.113733        -0.445455         0.551241
