19
Iteration:  1283
 O         4.333359         2.954717        -2.357896
 C         2.997028         2.449170        -2.382197
 C         1.968603         2.561488        -3.560637
 C         2.525526         1.192541        -3.098113
 C         1.696557         0.312975        -2.275243
 C         1.458461         1.092754        -0.958080
 C         2.547671         2.300120        -0.911088
 C         1.456300         0.272328         0.296301
 O         0.470636         0.337909         0.970362
 H         4.875776         2.806383        -3.193192
 H         0.934082         2.884838        -3.511172
 H         2.307113         2.747300        -4.590146
 H         3.305753         0.847115        -3.736930
 H         0.658949         0.201962        -2.731492
 H         2.075249        -0.744401        -2.025447
 H         0.549762         1.615597        -0.989850
 H         2.342805         3.163947        -0.299443
 H         3.454728         1.854434        -0.405761
 H         2.345651        -0.222970         0.694142
