19
Iteration:  2834
 O         4.421868         2.789798        -2.622012
 C         3.104451         2.406849        -2.463575
 C         2.138003         2.477511        -3.606465
 C         2.525051         1.121932        -3.053995
 C         1.751592         0.362359        -1.927657
 C         1.535256         1.362834        -0.806606
 C         2.425028         2.578526        -1.078435
 C         1.344283         0.460341         0.450124
 O         0.302264        -0.070365         0.839728
 H         4.411314         3.731651        -2.814227
 H         1.130688         2.846069        -3.496092
 H         2.413820         2.686970        -4.644431
 H         3.188356         0.605976        -3.761221
 H         0.720304        -0.062446        -2.309314
 H         2.460814        -0.436927        -1.528284
 H         0.434988         1.597153        -0.752864
 H         1.844072         3.527814        -0.818993
 H         3.188315         2.469761        -0.250235
 H         2.257242         0.268409         1.056784
