19
Iteration:  4343charge 0 multiplicity 1
 O         4.382416         2.978695        -2.498482
 C         3.036398         2.359592        -2.360263
 C         1.872703         2.325021        -3.368499
 C         2.668057         1.135303        -3.126318
 C         1.950515         0.180207        -2.158040
 C         1.416773         1.139426        -1.060264
 C         2.491264         2.211447        -0.937760
 C         1.320354         0.425232         0.199029
 O         0.403900         0.562698         0.957913
 H         4.076284         3.919387        -2.425244
 H         0.732346         2.613611        -3.179868
 H         2.157439         2.901686        -4.218265
 H         3.283411         0.624471        -4.019875
 H         1.069492        -0.312497        -2.611540
 H         2.737671        -0.420835        -1.705114
 H         0.422969         1.542668        -1.055586
 H         1.925936         3.097103        -0.589236
 H         3.268649         2.046245        -0.120309
 H         2.194159         0.021363         0.648080
