19
Iteration:  3937charge 0 multiplicity 1
 O         4.395284         3.049588        -2.568922
 C         3.121366         2.331607        -2.400020
 C         1.962483         2.383213        -3.371439
 C         2.596730         1.049358        -3.001299
 C         1.825595         0.201621        -2.045135
 C         1.385212         1.189689        -1.024554
 C         2.590459         2.410177        -0.995100
 C         1.306376         0.519478         0.281892
 O         0.328508         0.255716         0.891895
 H         4.399539         3.674795        -3.342927
 H         1.036454         2.827990        -2.909949
 H         2.058829         2.735794        -4.445132
 H         3.339777         0.592706        -3.794181
 H         1.004146        -0.483835        -2.456031
 H         2.445945        -0.511219        -1.403812
 H         0.530845         1.737118        -1.354070
 H         1.994527         3.245822        -0.663259
 H         3.317080         2.181197        -0.262773
 H         2.350488         0.099306         0.465221
