19
Iteration:   514
 O         4.374608         2.664796        -2.611958
 C         3.011590         2.405232        -2.431877
 C         2.058340         2.587578        -3.506557
 C         2.559144         1.186157        -3.056970
 C         1.772919         0.403184        -1.998750
 C         1.322960         1.384764        -0.991153
 C         2.429486         2.496774        -0.970274
 C         1.418476         0.488687         0.366350
 O         0.487592        -0.076491         0.896481
 H         4.514583         3.581365        -2.333412
 H         0.928434         2.909893        -3.372229
 H         2.491989         2.850415        -4.512898
 H         3.139733         0.712187        -3.828346
 H         1.063956        -0.320282        -2.381209
 H         2.635797        -0.223021        -1.587167
 H         0.295311         1.811048        -1.049580
 H         2.106319         3.518477        -0.630985
 H         3.202104         2.069886        -0.199025
 H         2.468048         0.236879         0.738384
