19
Iteration:  1967
 O         4.386175         2.800434        -2.576527
 C         3.016147         2.405693        -2.257727
 C         2.065557         2.520050        -3.426550
 C         2.652963         1.191998        -3.069392
 C         1.704067         0.312950        -2.288768
 C         1.302040         1.189266        -1.155944
 C         2.326682         2.328602        -0.908982
 C         1.445339         0.446887         0.205218
 O         0.573333         0.304251         1.079582
 H         4.609133         3.097479        -1.691676
 H         1.034944         2.684243        -3.138524
 H         2.325064         2.776124        -4.423862
 H         3.316615         0.755457        -3.790849
 H         0.787259        -0.037402        -2.750492
 H         2.348711        -0.490053        -1.960474
 H         0.229718         1.577711        -1.190551
 H         1.797943         3.217593        -0.410254
 H         3.099615         1.950019        -0.073923
 H         2.469063         0.055432         0.533982
