19
Iteration:  2511
 O         4.333256         3.012118        -2.409860
 C         3.064516         2.349645        -2.409865
 C         2.040909         2.503729        -3.541398
 C         2.577064         1.077298        -3.168820
 C         1.827828         0.181850        -2.198000
 C         1.437422         1.122470        -1.069435
 C         2.498890         2.203779        -1.009569
 C         1.295559         0.416841         0.346054
 O         0.420392         0.470308         1.144583
 H         4.146505         3.890673        -2.827239
 H         0.995278         2.890284        -3.493224
 H         2.621098         2.954655        -4.445301
 H         3.127914         0.643043        -3.980082
 H         1.000954        -0.396707        -2.623054
 H         2.653436        -0.554365        -1.808693
 H         0.472707         1.553381        -1.428587
 H         1.996552         3.078549        -0.546415
 H         3.217961         1.887796        -0.295432
 H         2.319873         0.075970         0.648243
