19
Iteration:  2816
 O         4.431898         2.710965        -2.603140
 C         3.005763         2.401475        -2.420111
 C         2.016636         2.467506        -3.555621
 C         2.564716         1.108294        -2.972072
 C         1.781415         0.333722        -1.997017
 C         1.337836         1.389309        -0.901466
 C         2.457781         2.532319        -0.961928
 C         1.418196         0.569366         0.446768
 O         0.421639        -0.012452         0.756066
 H         4.657146         3.620852        -2.404577
 H         0.945104         2.831535        -3.461942
 H         2.480591         2.737244        -4.586925
 H         3.367372         0.611135        -3.640359
 H         0.934977        -0.242858        -2.440188
 H         2.474997        -0.500433        -1.755055
 H         0.361030         1.748986        -1.191887
 H         1.941015         3.436334        -0.935582
 H         3.263592         2.556262        -0.244505
 H         2.445618         0.390407         0.879134
