19
Iteration:  3635
 O         4.281768         2.928391        -2.556503
 C         2.984034         2.377818        -2.335925
 C         1.951089         2.383378        -3.506761
 C         2.710469         1.113674        -3.101065
 C         1.928066         0.220576        -2.164777
 C         1.454696         1.186398        -1.058482
 C         2.511094         2.263103        -0.912922
 C         1.317089         0.456154         0.237772
 O         0.366358         0.415001         1.033380
 H         4.477857         3.804065        -2.274942
 H         0.914461         2.669507        -3.152462
 H         2.287595         3.011973        -4.307898
 H         3.440978         0.765715        -3.773652
 H         0.986840        -0.164816        -2.603294
 H         2.512703        -0.647640        -1.723533
 H         0.384002         1.606115        -1.148545
 H         2.242234         3.320637        -0.590671
 H         3.396613         2.113740        -0.262617
 H         2.221378         0.017233         0.641748
