19
Iteration:  2871charge 0 multiplicity 1
 O         4.363455         2.951481        -2.622269
 C         3.066905         2.390653        -2.435990
 C         2.101172         2.456757        -3.554616
 C         2.630364         1.073578        -3.045341
 C         1.717353         0.378803        -2.029120
 C         1.449329         1.340504        -0.887274
 C         2.531730         2.402676        -0.911668
 C         1.311685         0.525310         0.396923
 O         0.322991         0.003903         0.885189
 H         4.413849         3.394233        -3.502467
 H         0.990333         2.433537        -3.390552
 H         2.503673         2.568688        -4.581533
 H         3.480640         0.584909        -3.569185
 H         0.720292        -0.049261        -2.383133
 H         2.279666        -0.588017        -1.791553
 H         0.523513         1.794955        -1.135097
 H         2.304887         3.336577        -0.517478
 H         3.321253         1.969595        -0.330583
 H         2.290241         0.451742         0.932511
