19
Iteration:  1797
 O         4.315940         2.800854        -2.567156
 C         3.019370         2.418517        -2.320707
 C         1.911984         2.765856        -3.475660
 C         2.644444         1.271676        -3.188896
 C         1.916918         0.259901        -2.271696
 C         1.468682         1.142193        -0.943737
 C         2.597799         2.151609        -0.893402
 C         1.315993         0.378274         0.368309
 O         0.310875         0.282998         1.046974
 H         4.310558         3.588562        -3.134323
 H         0.747389         3.062241        -3.440452
 H         2.266100         3.176093        -4.453020
 H         3.166164         0.824007        -3.950047
 H         0.899796        -0.024265        -2.662065
 H         2.577594        -0.668172        -2.161251
 H         0.476926         1.523859        -1.077276
 H         2.608896         3.060576        -0.293354
 H         3.604258         1.664175        -0.400948
 H         2.322981        -0.201376         0.943506
