19
Iteration:  1688charge 0 multiplicity 1
 O         4.317784         2.871736        -2.668801
 C         3.092941         2.418913        -2.409660
 C         2.129258         2.680662        -3.431760
 C         2.516326         1.208998        -3.166166
 C         1.703297         0.332005        -2.167261
 C         1.382747         1.283076        -0.886004
 C         2.553389         2.394934        -0.930032
 C         1.361682         0.402136         0.429717
 O         0.384536        -0.028026         0.946214
 H         5.058383         2.203201        -2.595005
 H         0.967768         2.908489        -3.308739
 H         2.628236         3.018982        -4.369953
 H         3.052116         0.709808        -3.937426
 H         0.665976         0.170794        -2.646099
 H         2.328315        -0.530223        -1.848031
 H         0.418624         1.723318        -0.821607
 H         2.283160         3.300041        -0.388248
 H         3.483338         2.029744        -0.356429
 H         2.511458         0.318933         0.893510
