19
Iteration:   696charge 0 multiplicity 1
 O         4.309815         2.827107        -2.495211
 C         2.931707         2.474341        -2.340188
 C         1.890247         2.632279        -3.457835
 C         2.569791         1.332355        -3.241675
 C         1.991682         0.213059        -2.242934
 C         1.412454         1.085735        -1.033226
 C         2.663054         2.118682        -0.827986
 C         1.292533         0.380479         0.297391
 O         0.367575         0.400921         1.086478
 H         4.322007         3.279394        -3.333383
 H         0.938331         2.647047        -3.185744
 H         2.054973         3.374264        -4.149435
 H         3.363013         1.003130        -3.871783
 H         1.209469        -0.494555        -2.699177
 H         2.893712        -0.458997        -2.100183
 H         0.516886         1.700537        -1.192534
 H         2.459133         3.064847        -0.329004
 H         3.635061         1.547781        -0.640775
 H         2.259571        -0.145855         0.541579
