19
Iteration:   454charge 0 multiplicity 1
 O         4.239482         2.979122        -2.476643
 C         3.050941         2.368884        -2.379259
 C         1.992073         2.414759        -3.550736
 C         2.595999         1.105806        -3.092543
 C         1.610287         0.370583        -2.148072
 C         1.547956         1.284969        -0.868902
 C         2.624210         2.298800        -0.902878
 C         1.444851         0.627195         0.473370
 O         0.414688         0.033250         0.743773
 H         4.688310         2.979613        -3.356452
 H         0.961233         2.302350        -3.446453
 H         2.364088         2.997898        -4.336942
 H         3.154165         0.581152        -3.889046
 H         0.582559         0.330997        -2.555439
 H         1.928554        -0.578895        -1.860502
 H         0.626333         1.861173        -0.894790
 H         2.383799         3.297682        -0.486842
 H         3.493885         2.012232        -0.419439
 H         2.469257         0.367408         0.933072
