19
Iteration:  1147
 C         0.346926        -0.402160         0.330630
 C         1.067880         0.365399        -0.738795
 C         0.490012         0.536595        -2.102495
 C         1.628045         1.116521        -2.861773
 C         1.556614         1.161274        -4.283889
 O         2.344140         0.080276        -3.780075
 C         2.515622         2.025052        -1.943499
 C         2.259157         1.258101        -0.632715
 O         2.427909        -0.134545        -0.969902
 H         0.805889        -0.463144         1.394169
 H        -0.760925        -0.117384         0.282052
 H         0.427982        -1.474695        -0.078089
 H         0.251964        -0.334493        -2.719158
 H        -0.244212         1.354638        -2.211865
 H         0.645016         0.859804        -4.847384
 H         1.941255         2.091462        -4.765136
 H         3.515956         1.814088        -2.249462
 H         2.095769         3.006933        -1.974463
 H         2.446238         1.718248         0.343040
