19
Iteration:   522charge 0 multiplicity 1
 C         0.288973        -0.157939         0.434850
 C         1.045681         0.245044        -0.752296
 C         0.429228         0.561148        -2.091042
 C         1.686480         1.099057        -2.924105
 C         1.605893         1.407072        -4.404707
 O         2.317807         0.270919        -3.886979
 C         2.547588         1.883114        -1.896349
 C         2.317058         0.990710        -0.661517
 O         2.446626        -0.400222        -0.874883
 H         0.192207        -1.191299         0.573578
 H         0.668180         0.354724         1.386101
 H        -0.768854         0.127775         0.265908
 H        -0.120987        -0.262078        -2.555277
 H        -0.273862         1.414656        -2.117815
 H         0.565114         1.142998        -4.803804
 H         2.076764         2.224061        -5.006418
 H         3.565967         1.765131        -2.165272
 H         2.105518         2.929688        -1.722685
 H         2.560801         1.529039         0.254335
