19
Iteration:  3903charge 0 multiplicity 1
 C         0.363826        -0.291812         0.399503
 C         1.086631         0.204353        -0.848003
 C         0.536042         0.269410        -2.195359
 C         1.628526         1.027996        -2.933580
 C         1.537833         1.360719        -4.325594
 O         2.351499         0.225515        -3.867541
 C         2.439442         1.974806        -1.974080
 C         2.171027         1.275137        -0.632863
 O         2.517797        -0.154179        -0.717607
 H         0.157967        -1.320854         0.412888
 H         0.932240         0.045622         1.157999
 H        -0.735128         0.184449         0.509610
 H         0.043292        -0.623235        -2.524246
 H        -0.324210         1.024149        -2.276099
 H         0.666302         0.975828        -4.825525
 H         2.032161         2.241951        -4.695839
 H         3.525456         2.149916        -2.165964
 H         2.023818         2.986300        -2.156625
 H         2.462089         1.659472         0.427097
