19
Iteration:   340
 C        -0.098510         0.394418        -0.189036
 C         1.223188         0.161805        -0.864901
 C         1.188732        -0.430930        -2.193551
 C         1.871513         0.828489        -2.957398
 C         0.994080         1.726462        -3.680240
 O         1.847966         0.899285        -4.446725
 C         3.028235         1.224785        -2.030941
 C         2.415532         1.125480        -0.684906
 O         2.327680        -0.197168        -0.046638
 H        -0.811485        -0.493717        -0.063902
 H         0.077660         1.012845         0.784352
 H        -0.618178         1.097137        -0.774910
 H         1.686894        -1.391956        -2.167955
 H         0.115353        -0.538169        -2.536866
 H        -0.029486         1.429524        -3.584815
 H         1.106619         2.757094        -3.827346
 H         3.941690         0.612454        -2.289135
 H         3.489331         2.203768        -2.027880
 H         2.594959         2.036907        -0.020842
