19
Iteration:  3946charge 0 multiplicity 1
 C         0.159907        -0.162418         0.500161
 C         1.121489         0.233978        -0.661232
 C         0.616384         0.127934        -2.134561
 C         1.597543         1.024499        -2.995064
 C         1.457097         1.361804        -4.499896
 O         2.417584         0.447849        -4.043346
 C         2.468731         1.904035        -1.986640
 C         2.315657         1.196259        -0.600586
 O         2.481051        -0.233485        -0.642561
 H         0.476546        -1.178330         0.625135
 H         0.384158         0.394811         1.338894
 H        -0.994397        -0.079195         0.334118
 H         0.644727        -0.832994        -2.558075
 H        -0.482111         0.577240        -2.052331
 H         0.651348         0.927385        -5.065872
 H         1.898014         2.295132        -4.828017
 H         3.456467         1.904104        -2.489424
 H         2.070447         2.969135        -1.846205
 H         2.529073         1.678894         0.429654
