19
Iteration:  4446
 C         0.197283        -0.240085         0.436543
 C         1.192820         0.230831        -0.687805
 C         0.595391         0.146731        -2.198579
 C         1.655137         0.960124        -2.981454
 C         1.464179         1.385378        -4.375623
 O         2.351865         0.301017        -4.094521
 C         2.380503         1.948383        -1.908796
 C         2.240234         1.289194        -0.613030
 O         2.569464        -0.141317        -0.599280
 H         0.527452        -1.231372         0.594810
 H         0.323648         0.342239         1.296957
 H        -0.877385        -0.250747         0.074588
 H         0.641175        -0.848989        -2.739843
 H        -0.342192         0.724902        -2.285388
 H         0.593316         1.029025        -5.007745
 H         2.041961         2.330823        -4.648046
 H         3.348205         2.206035        -2.257454
 H         1.696769         2.855543        -1.889481
 H         2.455272         1.955732         0.290014
