19
Iteration:  4572
 C         0.089812        -0.182750         0.306668
 C         1.187161         0.211877        -0.750247
 C         0.891917        -0.033572        -2.198926
 C         1.660544         1.026926        -2.946905
 C         1.227507         1.470575        -4.269962
 O         2.293645         0.449159        -4.201570
 C         2.573561         1.786215        -1.974821
 C         2.192459         1.293811        -0.593366
 O         2.510251        -0.061054        -0.415581
 H        -0.279826        -1.278374         0.190832
 H         0.517523        -0.227754         1.307890
 H        -0.725189         0.548431         0.277567
 H         1.152807        -1.043246        -2.460515
 H        -0.167607        -0.124841        -2.382137
 H         0.362444         0.903020        -4.640202
 H         1.633350         2.389989        -4.760408
 H         3.654439         1.357141        -2.102754
 H         2.819405         2.796066        -2.309846
 H         2.144151         1.924528         0.268774
