19
Iteration:  1391charge 0 multiplicity 1
 C         0.027153         0.112663         0.328381
 C         1.143833         0.141902        -0.769414
 C         0.906635        -0.230102        -2.191906
 C         1.663171         0.838260        -2.991614
 C         1.138838         1.609046        -4.205056
 O         2.307355         0.732727        -4.359230
 C         2.732709         1.455840        -2.077122
 C         2.296408         1.245242        -0.638057
 O         2.452636        -0.112072        -0.184637
 H         0.413778         0.698068         1.353505
 H        -0.903764         0.550714        -0.113427
 H        -0.256349        -0.837840         0.594858
 H         1.190996        -1.233912        -2.522036
 H        -0.179547        -0.078729        -2.218402
 H         0.178994         1.228284        -4.693782
 H         1.348615         2.676763        -4.377231
 H         3.686734         0.940570        -2.277518
 H         2.992226         2.430076        -2.381385
 H         2.314471         1.948809         0.258266
