19
Iteration:  3463
 C         0.182580        -0.167177         0.394492
 C         1.121135         0.218240        -0.761994
 C         0.664729         0.239852        -2.191871
 C         1.699668         1.112788        -2.961653
 C         1.360097         1.304783        -4.371176
 O         2.414385         0.319998        -3.968771
 C         2.490081         1.952845        -1.916417
 C         2.260149         1.164158        -0.631067
 O         2.496141        -0.213465        -0.685742
 H        -0.234419        -1.103154         0.319929
 H         0.652967        -0.020274         1.436500
 H        -0.824742         0.449915         0.351798
 H         0.472753        -0.817340        -2.495208
 H        -0.384368         0.688172        -1.990958
 H         0.469586         0.761508        -4.733825
 H         1.617180         2.179832        -4.964222
 H         3.541732         2.000625        -2.290377
 H         2.097788         2.982177        -1.812315
 H         2.540960         1.585290         0.305432
