19
Iteration:  3841charge 0 multiplicity 1
 C         0.327780        -0.301818         0.346991
 C         1.154373         0.310514        -0.810039
 C         0.561969         0.385206        -2.179791
 C         1.601263         1.081799        -2.887103
 C         1.540225         1.209932        -4.310218
 O         2.427592         0.216420        -3.787209
 C         2.355909         1.964106        -1.954853
 C         2.189615         1.231614        -0.664484
 O         2.518727        -0.150604        -0.817966
 H        -0.534201        -1.005444        -0.010331
 H         1.029207        -0.935519         0.991506
 H        -0.265711         0.447087         0.907149
 H         0.136065        -0.585961        -2.724520
 H        -0.277723         1.093412        -2.031080
 H         0.560267         0.790172        -4.665287
 H         1.939120         2.077245        -4.891906
 H         3.346085         2.355460        -2.273020
 H         1.600780         2.774911        -2.041239
 H         2.411092         1.676045         0.318392
