19
Iteration:  4025charge 0 multiplicity 1
 C         0.126560        -0.153011         0.423026
 C         1.107408         0.274039        -0.699380
 C         0.845047        -0.045767        -2.232644
 C         1.661646         0.978060        -2.982983
 C         1.318109         1.465139        -4.273054
 O         2.320053         0.441571        -4.208825
 C         2.558745         1.753910        -2.017912
 C         2.230044         1.280918        -0.658336
 O         2.480036        -0.116064        -0.398493
 H        -0.498809        -0.974448         0.051096
 H         0.756217        -0.440553         1.297504
 H        -0.578759         0.701847         0.518443
 H         0.908858        -1.145176        -2.473153
 H        -0.254713         0.110109        -2.562893
 H         0.390452         1.186047        -4.829649
 H         1.637708         2.546873        -4.427775
 H         3.643760         1.614312        -2.383557
 H         2.612366         2.865615        -1.984135
 H         2.261714         2.009861         0.190768
