19
Iteration:  4734
 C         0.312437        -0.223215         0.513942
 C         1.110269         0.202216        -0.706588
 C         0.596498         0.155131        -2.215851
 C         1.614340         1.056563        -2.967933
 C         1.577981         1.499965        -4.455338
 O         2.302749         0.349190        -3.985255
 C         2.430937         1.856582        -1.933937
 C         2.151162         1.163761        -0.618377
 O         2.485930        -0.165106        -0.704172
 H         0.793437         0.320707         1.398557
 H        -0.704929         0.127897         0.430184
 H         0.309905        -1.285471         0.582339
 H         0.697248        -0.933483        -2.520434
 H        -0.449052         0.597388        -2.371213
 H         0.729023         1.176380        -5.080399
 H         2.126574         2.445399        -4.659695
 H         3.530857         1.743188        -2.088306
 H         2.218064         2.908354        -1.939133
 H         2.451479         1.739634         0.266490
