19
Iteration:  4366
 C         0.455783        -0.404046         0.398471
 C         1.024619         0.307268        -0.721753
 C         0.470836         0.329958        -2.186251
 C         1.613199         1.069880        -2.916832
 C         1.581279         1.235473        -4.408953
 O         2.439882         0.253178        -3.697127
 C         2.379773         2.052514        -2.031654
 C         2.254265         1.282413        -0.634660
 O         2.416899        -0.155669        -0.871909
 H         0.269891        -1.508016         0.214936
 H         0.980014        -0.279478         1.342028
 H        -0.544713         0.005276         0.496269
 H         0.054513        -0.622733        -2.606143
 H        -0.486992         0.974241        -2.247754
 H         0.720856         0.736412        -4.948447
 H         2.089282         2.185668        -4.783012
 H         3.459635         2.164380        -2.377762
 H         1.843724         2.978290        -1.904191
 H         2.400667         1.644365         0.322182
