19
Iteration:  3554charge 0 multiplicity 1
 C         0.109934        -0.061625         0.407323
 C         1.131882         0.197158        -0.778889
 C         0.814964         0.002550        -2.234305
 C         1.689662         0.966000        -2.979886
 C         1.402735         1.530031        -4.326167
 O         2.207293         0.368313        -4.198016
 C         2.571097         1.801288        -1.954704
 C         2.127088         1.251849        -0.554102
 O         2.576209        -0.167015        -0.443474
 H        -0.105774        -1.188733         0.429515
 H         0.545631         0.309937         1.299749
 H        -0.801460         0.397984         0.189243
 H         1.026497        -1.075035        -2.547681
 H        -0.244774         0.116051        -2.544095
 H         0.456908         1.288238        -4.841389
 H         1.851641         2.500834        -4.620907
 H         3.691012         1.754347        -2.093339
 H         2.383986         2.905772        -1.959626
 H         2.340801         1.840367         0.382705
