19
Iteration:  1200charge 0 multiplicity 1
 C         0.214262        -0.175970         0.357082
 C         1.114320         0.184372        -0.742754
 C         0.602693         0.296236        -2.105569
 C         1.575559         1.084294        -2.963082
 C         1.512489         1.396648        -4.476057
 O         2.305949         0.258938        -3.912656
 C         2.425263         1.894269        -1.985230
 C         2.308784         1.214303        -0.671289
 O         2.550825        -0.233571        -0.596881
 H         0.757571        -0.066240         1.213176
 H        -0.730393         0.413339         0.406665
 H        -0.024538        -1.313683         0.440104
 H         0.486447        -0.720378        -2.518344
 H        -0.341746         0.902954        -2.127934
 H         0.635596         1.164941        -5.065566
 H         2.179693         2.122581        -4.870025
 H         3.470220         2.006906        -2.265855
 H         1.993693         2.914091        -1.839789
 H         2.674861         1.752428         0.207279
