19
Iteration:  1527
 C         0.029516         0.149559         0.286853
 C         1.146031         0.189250        -0.813101
 C         1.010055        -0.268631        -2.278423
 C         1.851041         0.791346        -2.997580
 C         1.180041         1.656720        -3.904602
 O         2.076148         0.652147        -4.413719
 C         2.899886         1.500751        -2.071032
 C         2.177260         1.279255        -0.729384
 O         2.367121        -0.125979        -0.179731
 H         0.176506         0.856840         1.031446
 H        -1.049714         0.276021        -0.010493
 H         0.128777        -0.886859         0.922025
 H         1.583710        -1.235410        -2.431099
 H         0.070361        -0.345871        -2.863683
 H         0.147689         1.412016        -4.115855
 H         1.475738         2.713963        -3.919294
 H         3.864512         0.959468        -2.265114
 H         2.871329         2.592007        -2.416869
 H         1.956039         1.986194         0.031749
