19
Iteration:  2484
 C         0.217700         0.008057         0.523399
 C         1.143824         0.146693        -0.720500
 C         0.645012         0.013247        -2.172794
 C         1.637610         0.988171        -3.014725
 C         1.377887         1.372594        -4.446168
 O         2.506519         0.398332        -4.076664
 C         2.354644         1.951433        -1.988299
 C         2.162082         1.183463        -0.616138
 O         2.546057        -0.208698        -0.578915
 H        -0.558113         0.909277         0.598025
 H        -0.411158        -0.882509         0.304210
 H         0.842283        -0.105432         1.323036
 H         0.765495        -1.099534        -2.396798
 H        -0.365988         0.400016        -2.397001
 H         0.563468         0.865605        -5.017311
 H         1.861844         2.295584        -4.813286
 H         3.451316         2.140935        -2.146412
 H         2.089211         2.967900        -1.638728
 H         2.312313         1.824205         0.274797
