19
Iteration:  3569charge 0 multiplicity 1
 C         0.155338        -0.006709         0.313176
 C         1.151226         0.137173        -0.747148
 C         0.832548         0.013651        -2.229213
 C         1.789708         1.013724        -2.996904
 C         1.219579         1.484104        -4.262745
 O         2.336744         0.420839        -4.143129
 C         2.571262         1.782592        -1.935242
 C         2.189650         1.183875        -0.665191
 O         2.452877        -0.175530        -0.426819
 H        -0.159789        -1.141277         0.465338
 H         0.581063         0.204601         1.327904
 H        -0.636332         0.811460         0.302063
 H         1.013405        -0.951643        -2.658096
 H        -0.208419         0.237827        -2.336154
 H         0.199774         1.152072        -4.513691
 H         1.575476         2.371120        -4.801392
 H         3.631450         1.710903        -2.159506
 H         2.240080         2.844007        -2.043597
 H         2.072405         1.851560         0.197539
