19
Iteration:  4757
 C         0.337162        -0.200236         0.403151
 C         1.151864         0.212407        -0.774383
 C         0.486210         0.211003        -2.229490
 C         1.662715         1.015195        -2.903084
 C         1.553503         1.494078        -4.310385
 O         2.358614         0.244013        -3.917866
 C         2.380220         2.008053        -1.950240
 C         2.233305         1.187412        -0.692886
 O         2.446034        -0.261977        -0.707483
 H         0.628685         0.551317         1.202181
 H        -0.707785        -0.303594         0.355242
 H         0.746746        -1.182528         0.574395
 H         0.531714        -0.801164        -2.737809
 H        -0.468775         0.827483        -2.092742
 H         0.584535         1.268612        -4.830287
 H         2.267479         2.301454        -4.593790
 H         3.405394         2.168329        -2.412891
 H         1.880627         2.921731        -1.757655
 H         2.445207         1.710825         0.167282
