19
Iteration:  4246charge 0 multiplicity 1
 C         0.195856        -0.241614         0.355323
 C         1.132199         0.138214        -0.770840
 C         0.643936         0.168723        -2.178468
 C         1.681542         1.001032        -2.998996
 C         1.395016         1.385928        -4.348815
 O         2.376059         0.372369        -4.171838
 C         2.497024         1.900358        -1.986441
 C         2.173879         1.296024        -0.614337
 O         2.571510        -0.162920        -0.387946
 H        -0.192304        -1.308468         0.389543
 H         0.782316        -0.025036         1.283668
 H        -0.595774         0.441815         0.315352
 H         0.298171        -0.747693        -2.676902
 H        -0.252669         0.795129        -2.177417
 H         0.368554         1.111066        -4.760626
 H         1.700213         2.441633        -4.629136
 H         3.642557         1.797101        -2.082184
 H         2.090608         2.902385        -2.066318
 H         2.222681         1.772259         0.253122
