19
Iteration:  3140charge 0 multiplicity 1
 C         0.305079        -0.086883         0.479352
 C         1.111786         0.179864        -0.720157
 C         0.702348        -0.037499        -2.258316
 C         1.753016         0.983726        -3.003429
 C         1.370514         1.537944        -4.346452
 O         2.283194         0.443744        -4.240677
 C         2.621938         1.691575        -2.002298
 C         2.058465         1.296860        -0.614790
 O         2.434105        -0.128070        -0.398444
 H         0.189196        -1.232196         0.653104
 H         0.739273         0.206422         1.503559
 H        -0.697965         0.363216         0.385810
 H         0.801099        -0.961036        -2.784811
 H        -0.294797         0.301934        -2.412624
 H         0.396062         1.356138        -4.784989
 H         1.888096         2.454694        -4.649053
 H         3.672932         1.331687        -1.836956
 H         2.491571         2.806783        -2.105231
 H         2.106783         1.856361         0.228256
