19
Iteration:  3633charge 0 multiplicity 1
 C         0.090705         0.066604         0.393761
 C         1.161684         0.156737        -0.777535
 C         0.837743        -0.087119        -2.227366
 C         1.687669         0.965473        -2.990690
 C         1.291611         1.490293        -4.270254
 O         2.335064         0.457614        -4.170004
 C         2.506636         1.805283        -2.013631
 C         2.268336         1.219870        -0.655705
 O         2.492251        -0.203125        -0.391437
 H        -0.611386        -0.863524         0.184878
 H         0.532761        -0.214312         1.305822
 H        -0.605234         0.787469         0.453613
 H         1.305077        -1.027584        -2.599137
 H        -0.239799        -0.007822        -2.297142
 H         0.395917         1.233139        -4.857560
 H         1.787606         2.456419        -4.481585
 H         3.594464         1.703721        -2.160292
 H         2.153411         2.892103        -1.933206
 H         2.171658         1.881291         0.246289
