19
Iteration:  3947charge 0 multiplicity 1
 C         0.159853        -0.159588         0.503754
 C         1.123028         0.237334        -0.671282
 C         0.623168         0.124539        -2.123397
 C         1.587496         1.021159        -2.992817
 C         1.451766         1.363100        -4.503561
 O         2.417327         0.455920        -4.038060
 C         2.470411         1.898135        -1.982721
 C         2.323029         1.196578        -0.617308
 O         2.480523        -0.234560        -0.632246
 H         0.439429        -1.192497         0.602673
 H         0.366631         0.409985         1.328625
 H        -1.000921        -0.092410         0.302885
 H         0.644692        -0.857448        -2.621864
 H        -0.483747         0.553400        -2.036422
 H         0.636267         0.927663        -5.075099
 H         1.941132         2.288809        -4.820300
 H         3.473424         1.930927        -2.493892
 H         2.092754         2.963924        -1.858997
 H         2.513928         1.670376         0.426010
