19
Iteration:  3350charge 0 multiplicity 1
 C         0.184780        -0.426161         0.346176
 C         1.147248         0.307763        -0.720939
 C         0.508046         0.410214        -2.078080
 C         1.567332         1.054958        -2.963863
 C         1.512449         1.198343        -4.422336
 O         2.418610         0.259399        -3.780746
 C         2.397390         1.996184        -1.983258
 C         2.328140         1.292155        -0.684076
 O         2.539043        -0.128188        -0.781225
 H         0.019372        -1.484715         0.031490
 H         0.683159        -0.428541         1.290323
 H        -0.878960         0.178933         0.362561
 H         0.372245        -0.597038        -2.392834
 H        -0.306502         1.215609        -2.005630
 H         0.705324         0.732139        -4.987419
 H         2.045690         2.046718        -4.850860
 H         3.398005         1.851452        -2.351946
 H         1.915883         3.001593        -1.897904
 H         2.832622         1.703949         0.254713
