19
Iteration:   572charge 0 multiplicity 1
 C         0.370378        -0.277893         0.350487
 C         1.062261         0.302836        -0.792555
 C         0.397926         0.658507        -2.084507
 C         1.557541         1.158753        -2.901158
 C         1.718103         1.279533        -4.393905
 O         2.294575         0.169452        -3.549750
 C         2.448629         1.913762        -1.913473
 C         2.391992         1.074930        -0.650083
 O         2.372047        -0.299339        -1.116591
 H        -0.517033        -0.978638         0.067658
 H         1.099602        -0.763683         0.901510
 H        -0.156355         0.447568         1.039334
 H        -0.112281        -0.220140        -2.541701
 H        -0.359275         1.446567        -1.937264
 H         0.957464         1.086083        -5.106780
 H         2.505094         1.873490        -4.801197
 H         3.486781         1.994971        -2.423944
 H         1.913635         2.820198        -1.770006
 H         2.996818         1.357771         0.237583
