19
Iteration:  3186
 C         0.038682        -0.092715         0.269024
 C         1.222135         0.226388        -0.719407
 C         0.799035         0.022778        -2.083267
 C         1.642535         0.966671        -2.931829
 C         1.268944         1.413777        -4.305979
 O         2.348738         0.454488        -4.110727
 C         2.550333         1.787414        -2.007298
 C         2.313083         1.276599        -0.659248
 O         2.523900        -0.178924        -0.493603
 H        -0.612952        -0.860306        -0.164310
 H         0.377841        -0.492129         1.190433
 H        -0.616663         0.915842         0.413220
 H         0.954242        -0.990470        -2.420724
 H        -0.182886         0.391712        -2.243627
 H         0.366385         0.955848        -4.742821
 H         1.490733         2.424391        -4.642169
 H         3.527083         1.659699        -2.495437
 H         2.025750         2.836631        -1.825181
 H         2.550355         1.858522         0.240774
