19
Iteration:  2734charge 0 multiplicity 1
 C         0.130882        -0.116479         0.493385
 C         1.063285         0.297154        -0.762882
 C         0.830432        -0.014289        -2.215074
 C         1.759248         0.934827        -2.927597
 C         1.334158         1.526471        -4.202119
 O         2.244019         0.473936        -4.257087
 C         2.677155         1.649496        -2.007432
 C         2.134348         1.267570        -0.701786
 O         2.480330        -0.118118        -0.493557
 H         0.723647        -0.954256         1.106352
 H        -0.003878         0.791001         1.106594
 H        -0.837490        -0.382422         0.092621
 H         0.931413        -1.041212        -2.598774
 H        -0.309723         0.121799        -2.472058
 H         0.356404         1.315291        -4.658812
 H         1.871643         2.464528        -4.445396
 H         3.749281         1.238788        -1.956377
 H         2.479069         2.710627        -2.161219
 H         2.144189         1.830936         0.255320
