19
Iteration:  2608charge 0 multiplicity 1
 C         0.083898        -0.086462         0.369525
 C         1.134586         0.226698        -0.675393
 C         0.825666        -0.120715        -2.135422
 C         1.708795         0.922881        -3.019606
 C         1.272220         1.516157        -4.313586
 O         2.352954         0.515175        -4.297661
 C         2.555328         1.674902        -2.011311
 C         2.173587         1.294031        -0.618218
 O         2.497166        -0.079069        -0.343723
 H        -0.884406        -0.118740         0.042520
 H         0.585937        -0.980506         0.795277
 H         0.257141         0.774775         1.050923
 H         1.053916        -1.222351        -2.250574
 H        -0.233506         0.150059        -2.340118
 H         0.290076         1.210787        -4.700228
 H         1.591044         2.507472        -4.642124
 H         3.415726         1.183731        -2.353240
 H         2.735476         2.709530        -2.275158
 H         2.387125         2.003143         0.165984
