19
Iteration:  4871
 C         0.326930        -0.341423         0.477434
 C         1.088029         0.190696        -0.668197
 C         0.464204         0.295062        -2.134352
 C         1.575045         1.049897        -3.051700
 C         1.656459         1.503378        -4.383410
 O         2.358252         0.244391        -3.917904
 C         2.340779         1.870300        -2.049923
 C         2.157177         1.267104        -0.667062
 O         2.608277        -0.183163        -0.704982
 H         0.757950        -0.012294         1.390056
 H        -0.741019         0.055037         0.497886
 H         0.106288        -1.423851         0.391589
 H         0.130270        -0.658915        -2.577962
 H        -0.383035         1.066472        -2.028537
 H         0.811015         1.339435        -5.036668
 H         2.440898         2.245443        -4.543576
 H         3.408012         1.859055        -2.326901
 H         1.990401         2.965559        -1.966827
 H         2.563243         1.876445         0.272807
