19
Iteration:  2417charge 0 multiplicity 1
 C         0.308510        -0.480794         0.443963
 C         1.138755         0.320489        -0.693959
 C         0.567754         0.411498        -2.148973
 C         1.584349         1.131533        -3.006944
 C         1.561546         1.282147        -4.515479
 O         2.402863         0.189305        -3.788687
 C         2.355125         1.930727        -2.022644
 C         2.224611         1.281969        -0.719968
 O         2.470258        -0.092859        -0.647589
 H        -0.818702        -0.235337         0.234882
 H         0.535280        -1.467001         0.423869
 H         0.445532        -0.035491         1.364611
 H         0.279205        -0.491004        -2.647545
 H        -0.265500         0.966596        -1.725825
 H         0.669815         0.863115        -4.997077
 H         2.142862         1.993837        -5.092633
 H         3.440598         1.880554        -2.276691
 H         2.029888         2.959545        -2.108868
 H         2.534515         1.811479         0.160877
