19
Iteration:  2687
 C        -0.008239        -0.004409         0.305016
 C         1.181848         0.186010        -0.621216
 C         0.897516        -0.048866        -2.168236
 C         1.683180         0.977372        -2.950893
 C         1.252000         1.522900        -4.344617
 O         2.261528         0.528407        -4.252244
 C         2.594845         1.704890        -2.051616
 C         2.296979         1.171759        -0.663228
 O         2.547971        -0.167660        -0.303922
 H        -0.024818        -1.045267         0.378020
 H         0.239784         0.342325         1.300427
 H        -1.032834         0.453913        -0.098976
 H         0.968771        -1.124601        -2.415014
 H        -0.239429         0.095143        -2.473753
 H         0.261288         1.165330        -4.624136
 H         1.506952         2.548157        -4.635865
 H         3.572530         1.421906        -2.409389
 H         2.400234         2.763518        -2.046691
 H         2.474370         1.814589         0.247680
