19
Iteration:  1183
 C         0.268866        -0.317349         0.357619
 C         1.159454         0.234336        -0.713574
 C         0.503532         0.471810        -2.157361
 C         1.554055         1.205540        -2.968615
 C         1.523706         1.200631        -4.474684
 O         2.343405         0.239739        -3.918526
 C         2.465132         1.939602        -1.996367
 C         2.299508         1.210141        -0.618454
 O         2.547265        -0.248055        -0.595562
 H         0.550910        -0.177720         1.549721
 H        -0.728658         0.111499         0.274139
 H         0.107091        -1.310969         0.140498
 H         0.018071        -0.314386        -2.748054
 H        -0.356353         1.128080        -1.910307
 H         0.624035         0.758071        -4.983907
 H         1.951772         2.151477        -4.964035
 H         3.499529         2.022038        -2.408651
 H         2.291182         3.031388        -1.858801
 H         2.356905         1.709676         0.377088
