19
Iteration:  4037charge 0 multiplicity 1
 C         0.181901        -0.123964         0.313540
 C         1.102671         0.242258        -0.753521
 C         0.751025        -0.059877        -2.153919
 C         1.642435         0.920983        -2.978959
 C         1.298205         1.508799        -4.362341
 O         2.319882         0.525249        -4.134794
 C         2.636095         1.711929        -2.058002
 C         2.215252         1.249964        -0.664022
 O         2.465237        -0.072443        -0.306204
 H        -0.454221        -0.978934        -0.032038
 H         0.719673        -0.567946         1.250106
 H        -0.441230         0.597791         0.814383
 H         1.317735        -1.035822        -2.480755
 H        -0.347176         0.049952        -2.302888
 H         0.370361         1.093039        -4.873140
 H         1.661765         2.551981        -4.685311
 H         3.691236         1.319160        -2.324039
 H         2.359144         2.755270        -2.190992
 H         2.477166         1.899012         0.154456
