19
Iteration:   551
 C         0.375292        -0.256508         0.468707
 C         1.017689         0.326240        -0.735831
 C         0.354251         0.622672        -2.098676
 C         1.565995         1.252685        -2.893901
 C         1.735164         1.261428        -4.370888
 O         2.345556         0.193684        -3.681543
 C         2.514910         1.978738        -1.942780
 C         2.385714         1.045061        -0.757410
 O         2.320879        -0.411372        -1.030477
 H        -0.025685        -1.233170         0.020704
 H         1.064395        -0.421782         1.197151
 H        -0.657332         0.224442         0.813852
 H         0.107837        -0.326579        -2.630388
 H        -0.499511         1.294933        -2.106393
 H         0.863395         0.966564        -4.944896
 H         2.202573         2.109695        -4.816628
 H         3.605394         2.013016        -2.318010
 H         2.270478         2.982932        -1.652690
 H         2.859854         1.419231         0.179160
