19
Iteration:   995
 C         0.056641        -0.074463         0.312889
 C         1.190670         0.141409        -0.690785
 C         0.741186         0.046403        -2.193015
 C         1.691304         0.887286        -2.976759
 C         1.392722         1.633750        -4.306169
 O         2.152559         0.471680        -4.214265
 C         2.739922         1.614943        -2.014675
 C         2.161303         1.222504        -0.653640
 O         2.550796        -0.131213        -0.320042
 H         0.475701         0.167454         1.339810
 H        -0.869943         0.569783         0.193748
 H        -0.166581        -1.081007         0.265235
 H         0.551344        -0.919735        -2.665341
 H        -0.227697         0.560632        -2.310874
 H         0.453631         1.354899        -4.900560
 H         1.929045         2.575122        -4.607527
 H         3.798787         1.347746        -2.183234
 H         2.643310         2.781360        -2.142109
 H         2.323033         1.851400         0.212248
