19
Iteration:   119
 C         0.218264        -0.244223         0.415956
 C         1.129761         0.198060        -0.759834
 C         0.516761         0.581622        -2.168517
 C         1.657084         1.119114        -2.933442
 C         1.614199         1.419333        -4.314208
 O         2.266258         0.183481        -3.839160
 C         2.495044         1.905508        -1.942446
 C         2.321922         1.091192        -0.659707
 O         2.459943        -0.342482        -0.872700
 H        -0.445806        -1.075614         0.200148
 H         0.884513        -0.471803         1.401549
 H        -0.451985         0.498956         0.632690
 H        -0.150687        -0.192512        -2.597134
 H        -0.144465         1.466088        -2.006801
 H         0.699205         1.313964        -4.825649
 H         2.281658         2.114177        -4.782370
 H         3.486087         1.935045        -2.362684
 H         2.019647         2.920754        -1.840216
 H         2.616638         1.491794         0.294188
