19
Iteration:  1990
 C         0.146415        -0.038754         0.345162
 C         1.153340         0.205928        -0.771994
 C         0.765469        -0.003950        -2.254757
 C         1.691548         0.964572        -2.934985
 C         1.314382         1.459564        -4.276748
 O         2.326080         0.450446        -4.064221
 C         2.546502         1.780238        -1.972062
 C         2.249333         1.242164        -0.662442
 O         2.523043        -0.189597        -0.472795
 H        -0.863792        -0.377468        -0.111007
 H         0.435556        -0.895773         0.800566
 H        -0.106710         0.869772         0.997078
 H         0.781801        -1.075097        -2.325135
 H        -0.353148         0.189802        -2.434619
 H         0.366896         1.048879        -4.659076
 H         1.653917         2.377965        -4.677955
 H         3.538014         2.041642        -2.461094
 H         1.994074         2.769407        -2.048614
 H         2.422350         1.878731         0.231829
