19
Iteration:   641charge 0 multiplicity 1
 C         0.173395        -0.205522         0.352843
 C         1.095959         0.277062        -0.727965
 C         0.532450         0.378212        -2.073133
 C         1.663622         1.106241        -2.934590
 C         1.531090         1.424442        -4.342330
 O         2.319852         0.272962        -3.977402
 C         2.626892         1.861620        -2.042189
 C         2.318960         1.154827        -0.631156
 O         2.386907        -0.279623        -0.723872
 H        -0.840881        -0.399170         0.186865
 H         0.750042        -1.146623         0.634673
 H         0.266983         0.293390         1.428001
 H         0.276689        -0.597999        -2.491960
 H        -0.425910         0.907081        -1.958174
 H         0.498120         1.171276        -4.709326
 H         1.999077         2.329348        -4.785086
 H         3.614105         1.533566        -2.318467
 H         2.408546         2.908477        -1.950934
 H         2.683742         1.461843         0.342904
