19
Iteration:  2632
 C         0.068303         0.020634         0.403964
 C         1.158087         0.138239        -0.746291
 C         0.829239        -0.106967        -2.287826
 C         1.772954         0.918968        -2.994000
 C         1.187109         1.518864        -4.186600
 O         2.307037         0.462832        -4.181854
 C         2.695210         1.718223        -1.978148
 C         2.123203         1.261315        -0.690167
 O         2.527431        -0.113954        -0.405117
 H        -0.792762        -0.302946         0.029610
 H         0.605319        -0.607775         1.094885
 H        -0.069250         1.111638         0.870325
 H         1.220728        -1.102456        -2.418756
 H        -0.197883         0.089151        -2.777591
 H         0.286938         1.108753        -4.619660
 H         1.330656         2.557974        -4.385556
 H         3.675903         1.572230        -2.347974
 H         2.439388         2.750529        -2.110035
 H         1.994382         1.927501         0.188662
