19
Iteration:  1454
 C        -0.027850         0.138356         0.028979
 C         1.238369         0.242640        -0.757593
 C         1.064103        -0.217168        -2.217995
 C         1.758117         0.918156        -2.949672
 C         1.082899         1.596893        -4.058965
 O         1.994562         0.547484        -4.413918
 C         2.857262         1.597753        -1.971519
 C         2.278916         1.155179        -0.595286
 O         2.499828        -0.135337        -0.135695
 H         0.080153         0.253482         1.141005
 H        -0.588037         1.000148        -0.257541
 H        -0.587447        -0.753098        -0.121093
 H         1.637831        -1.149865        -2.238156
 H         0.014190        -0.393875        -2.425866
 H         0.039491         1.353010        -4.327073
 H         1.490519         2.562479        -4.325880
 H         3.842462         1.138545        -1.974744
 H         2.748583         2.625946        -2.279354
 H         2.236370         1.909999         0.251818
