19
Iteration:  4764charge 0 multiplicity 1
 C         0.315389        -0.214685         0.408888
 C         1.131923         0.210510        -0.792512
 C         0.481447         0.216435        -2.191075
 C         1.649358         1.013747        -2.936167
 C         1.558768         1.453845        -4.343212
 O         2.373377         0.263549        -3.905654
 C         2.369694         2.002026        -1.919856
 C         2.296845         1.159635        -0.681874
 O         2.472106        -0.224340        -0.734809
 H         0.430939         0.424151         1.337444
 H        -0.777153        -0.237053         0.121338
 H         0.776142        -1.158186         0.724180
 H         0.018692        -0.720728        -2.575164
 H        -0.426471         0.799195        -2.212602
 H         0.704006         1.218272        -4.941259
 H         2.032214         2.339574        -4.753370
 H         3.367974         2.257852        -2.174342
 H         1.890485         3.013801        -1.776695
 H         2.667354         1.647600         0.346343
