19
Iteration:  3160charge 0 multiplicity 1
 C         0.125390        -0.148483         0.464784
 C         1.075962         0.266919        -0.746956
 C         0.727824         0.042372        -2.141724
 C         1.741144         0.952343        -2.999354
 C         1.309025         1.457718        -4.336095
 O         2.358230         0.480617        -4.243496
 C         2.585318         1.731510        -2.023789
 C         2.193810         1.252511        -0.610133
 O         2.503526        -0.132307        -0.434781
 H        -0.370098        -1.221705         0.363621
 H         0.901881        -0.164590         1.348059
 H        -0.650420         0.503418         0.641004
 H         1.040296        -0.935984        -2.487610
 H        -0.277045         0.362738        -2.435340
 H         0.399794         1.101703        -4.812003
 H         1.564730         2.506632        -4.573703
 H         3.571873         1.249598        -2.222489
 H         2.510697         2.768095        -2.090903
 H         2.269795         1.923518         0.220221
