19
Iteration:  3832
 C         0.330382        -0.260000         0.322380
 C         1.042405         0.269160        -0.778608
 C         0.547526         0.365637        -2.166719
 C         1.701580         1.054629        -2.924495
 C         1.503792         1.162607        -4.353807
 O         2.452028         0.253819        -3.825606
 C         2.328634         1.973566        -1.904994
 C         2.154541         1.225191        -0.582354
 O         2.556900        -0.155023        -0.883539
 H        -0.565381        -0.976720         0.204002
 H         1.168983        -0.629733         1.120953
 H         0.069796         0.568641         0.943231
 H         0.046243        -0.574072        -2.656359
 H        -0.421486         1.046978        -1.996285
 H         0.544202         0.809408        -4.799424
 H         1.957537         2.020381        -4.901257
 H         3.376006         2.295660        -2.132031
 H         1.821283         3.016169        -1.747210
 H         2.411014         1.666319         0.349551
