19
Iteration:    23
 C         0.248142        -0.248973         0.346934
 C         1.140790         0.246444        -0.805963
 C         0.490097         0.626950        -2.121493
 C         1.658048         1.177369        -2.940787
 C         1.592994         1.340638        -4.381660
 O         2.224816         0.172481        -3.804338
 C         2.511281         1.947832        -1.904271
 C         2.353757         1.065977        -0.641912
 O         2.467673        -0.370553        -0.836344
 H         0.125676        -1.340576         0.261770
 H         0.607699        -0.032773         1.347122
 H        -0.785472         0.152893         0.266587
 H        -0.000765        -0.183582        -2.649891
 H        -0.271159         1.376846        -1.860934
 H         0.670553         1.087890        -4.885970
 H         2.226023         2.048677        -4.928572
 H         3.522666         2.173528        -2.209326
 H         1.999751         2.909272        -1.638851
 H         2.733572         1.408452         0.318072
