19
Iteration:  3645
 C         0.207273        -0.006034         0.309068
 C         1.133355         0.179047        -0.783844
 C         0.857955        -0.069158        -2.267629
 C         1.698797         0.953308        -2.970172
 C         1.333997         1.565053        -4.260715
 O         2.282050         0.362714        -4.154468
 C         2.549297         1.764400        -1.946004
 C         2.133890         1.199094        -0.610874
 O         2.474817        -0.123408        -0.386466
 H        -0.474954        -0.958832         0.256407
 H         0.787665         0.092744         1.236912
 H        -0.332578         0.881268         0.323950
 H         0.988940        -1.101893        -2.564533
 H        -0.174258         0.099085        -2.550939
 H         0.297326         1.357861        -4.605270
 H         1.807048         2.455698        -4.688981
 H         3.540443         1.938592        -2.365530
 H         2.133990         2.838833        -1.910003
 H         2.192834         1.853081         0.270089
