19
Iteration:  1552
 C        -0.048889         0.136541         0.119768
 C         1.187760         0.235353        -0.738911
 C         1.050580        -0.241943        -2.168302
 C         1.791949         0.846469        -3.015753
 C         1.148226         1.702183        -4.064940
 O         2.000718         0.592446        -4.332259
 C         2.825255         1.502327        -1.993590
 C         2.269804         1.214552        -0.669899
 O         2.504838        -0.147849        -0.201580
 H        -0.172599         0.906234         0.917015
 H        -0.931648         0.153595        -0.484156
 H        -0.082547        -0.852338         0.775227
 H         1.545769        -1.184313        -2.467668
 H         0.117159        -0.188228        -2.708268
 H         0.086055         1.476763        -4.325155
 H         1.500139         2.687642        -4.333213
 H         3.783022         0.940858        -2.115770
 H         2.898287         2.606435        -2.164925
 H         2.316531         1.917913         0.213757
