19
Iteration:  1673
 C         0.053042         0.008314         0.262509
 C         1.218897         0.236444        -0.667905
 C         0.857471        -0.010158        -2.168259
 C         1.669712         0.954812        -2.998963
 C         1.270945         1.574183        -4.338326
 O         2.181638         0.526478        -4.244562
 C         2.715009         1.603550        -2.033807
 C         2.214783         1.210320        -0.594024
 O         2.507168        -0.197906        -0.277411
 H         0.448188        -0.355932         1.205329
 H        -0.707285         0.695194         0.364736
 H        -0.495736        -0.899659        -0.068148
 H         1.147074        -1.032283        -2.223033
 H        -0.201189         0.098453        -2.312105
 H         0.328756         1.212095        -4.728735
 H         1.558435         2.571509        -4.710839
 H         3.705549         1.270473        -2.385563
 H         2.568598         2.661515        -2.156859
 H         2.478041         1.916367         0.218888
