19
Iteration:  3581
 C         0.137991        -0.005883         0.350060
 C         1.111034         0.211423        -0.805706
 C         0.807985        -0.009850        -2.231770
 C         1.734072         0.973910        -2.948317
 C         1.200310         1.363296        -4.230633
 O         2.382005         0.553730        -4.167179
 C         2.603900         1.804874        -2.040167
 C         2.188265         1.203483        -0.608522
 O         2.503449        -0.247564        -0.394815
 H        -0.597844        -0.887713         0.214912
 H         0.736289         0.139600         1.340388
 H        -0.714914         0.757877         0.031359
 H         0.858306        -1.029664        -2.494354
 H        -0.204995         0.367072        -2.395129
 H         0.298616         0.849077        -4.618181
 H         1.452937         2.343247        -4.644688
 H         3.662167         1.726539        -2.204410
 H         2.373374         2.884448        -1.948576
 H         2.422493         1.774421         0.274969
