19
Iteration:  4659
 C         0.050449        -0.111508         0.299833
 C         1.190801         0.183732        -0.721125
 C         0.875661         0.044657        -2.193827
 C         1.675632         1.063450        -2.898670
 C         1.289049         1.381856        -4.327486
 O         2.270186         0.410374        -4.158504
 C         2.485115         1.881585        -1.898583
 C         2.208585         1.213780        -0.599846
 O         2.590333        -0.181792        -0.538490
 H         0.363204        -0.876898         1.113976
 H        -0.258323         0.780563         0.802872
 H        -0.795810        -0.387646        -0.311208
 H         1.343023        -0.928532        -2.472415
 H        -0.218993         0.264289        -2.307725
 H         0.251907         1.155685        -4.782564
 H         1.826671         2.317608        -4.739298
 H         3.651846         1.724598        -2.073796
 H         2.149422         2.937302        -1.904983
 H         2.467789         1.783615         0.284846
