19
Iteration:  2696
 C         0.091526        -0.010032         0.303952
 C         1.153758         0.188261        -0.711427
 C         0.873232        -0.032052        -2.170105
 C         1.679525         0.968586        -2.945238
 C         1.270463         1.485345        -4.297466
 O         2.237444         0.547136        -4.234829
 C         2.638243         1.669049        -2.034893
 C         2.225029         1.222106        -0.655616
 O         2.528506        -0.203100        -0.311944
 H         0.046216        -0.999246         0.588347
 H         0.129124         0.520703         1.277249
 H        -0.963923         0.166291        -0.154515
 H         1.039009        -1.070790        -2.585070
 H        -0.190908         0.289842        -2.190108
 H         0.303287         1.150691        -4.722007
 H         1.548581         2.493250        -4.607164
 H         3.631180         1.511114        -2.326211
 H         2.581057         2.769028        -2.017563
 H         2.293574         2.088558         0.000937
