19
Iteration:  2486
 C         0.209464         0.020465         0.521282
 C         1.150017         0.153380        -0.726958
 C         0.641894        -0.000060        -2.156459
 C         1.628823         0.997809        -3.007125
 C         1.364416         1.378562        -4.466297
 O         2.519681         0.403169        -4.083760
 C         2.355127         1.938650        -1.987067
 C         2.173291         1.179258        -0.620766
 O         2.538729        -0.206117        -0.559009
 H        -0.498627         0.889009         0.649071
 H        -0.395787        -0.939474         0.248955
 H         0.836234        -0.159884         1.310821
 H         0.783810        -1.146041        -2.365316
 H        -0.334234         0.420792        -2.465119
 H         0.546475         0.898494        -5.034383
 H         1.862740         2.297755        -4.843954
 H         3.422739         2.114043        -2.199064
 H         2.098255         2.942838        -1.588171
 H         2.323883         1.828286         0.271633
