19
Iteration:   703charge 0 multiplicity 1
 C         0.081303         0.149448         0.408862
 C         1.141155         0.130597        -0.720705
 C         0.782478        -0.018068        -2.318073
 C         1.704285         0.939722        -3.056241
 C         1.283361         1.676018        -4.273839
 O         2.261152         0.493128        -4.204399
 C         2.633715         1.685602        -1.993016
 C         2.274230         1.089464        -0.613688
 O         2.487937        -0.308105        -0.312791
 H        -0.645153         1.043535         0.397471
 H        -0.536720        -0.637241         0.227443
 H         0.608395         0.060574         1.347742
 H         1.104937        -1.062887        -2.583766
 H        -0.310522         0.062500        -2.503157
 H         0.344850         1.513037        -4.771210
 H         1.742437         2.600099        -4.416570
 H         3.734955         1.519992        -2.380798
 H         2.531872         2.768457        -2.162565
 H         2.482123         1.650773         0.305910
