19
Iteration:  1503
 C         0.000514         0.120573         0.285251
 C         1.132516         0.213742        -0.811392
 C         1.003071        -0.338846        -2.180430
 C         1.808447         0.815264        -3.040797
 C         1.093505         1.660864        -4.003396
 O         2.185102         0.780187        -4.441950
 C         2.859887         1.326031        -2.025276
 C         2.191045         1.267237        -0.708634
 O         2.425657        -0.031376        -0.200354
 H         0.302370         0.635144         1.245383
 H        -1.031945         0.552530         0.054060
 H        -0.145330        -0.932152         0.637984
 H         1.532428        -1.299045        -2.038070
 H        -0.066075        -0.500823        -2.493059
 H         0.114202         1.353752        -4.353429
 H         1.369691         2.743383        -4.041070
 H         3.702571         0.649613        -2.206905
 H         3.037090         2.356527        -2.386876
 H         2.192268         2.016361         0.051030
