19
Iteration:  1787charge 0 multiplicity 1
 C         0.340766        -0.155910         0.476313
 C         1.079450         0.224947        -0.818516
 C         0.438781         0.426674        -2.165230
 C         1.585704         1.049646        -2.983779
 C         1.562150         1.352466        -4.367376
 O         2.456627         0.292317        -3.868345
 C         2.354412         1.935832        -1.971578
 C         2.284290         1.089821        -0.688822
 O         2.511265        -0.303109        -0.737477
 H         0.996898         0.251628         1.278110
 H        -0.741320         0.255829         0.362598
 H         0.149122        -1.161368         0.635152
 H         0.207756        -0.644680        -2.473651
 H        -0.485956         1.039805        -2.230620
 H         0.638843         1.071624        -4.957932
 H         2.223082         2.101006        -4.787829
 H         3.328379         2.293935        -2.268269
 H         1.726191         2.726064        -1.552331
 H         2.579344         1.467633         0.293617
