19
Iteration:  4189charge 0 multiplicity 1
 C         0.105996        -0.164998         0.437047
 C         1.107022         0.256209        -0.718607
 C         0.852217        -0.024473        -2.131561
 C         1.749296         0.938434        -2.970284
 C         1.337093         1.542015        -4.306394
 O         2.289777         0.435436        -4.214934
 C         2.580436         1.753873        -2.002489
 C         2.203186         1.265250        -0.624724
 O         2.443205        -0.121259        -0.531328
 H         0.316805        -1.167081         0.857966
 H         0.004479         0.553376         1.350864
 H        -0.925224        -0.270114         0.104006
 H         1.198073        -0.990630        -2.365867
 H        -0.198361         0.112242        -2.595569
 H         0.299388         1.325849        -4.651705
 H         1.696052         2.541182        -4.617160
 H         3.734107         1.772229        -2.039828
 H         2.462001         2.814441        -2.270232
 H         2.311814         1.807638         0.348858
