19
Iteration:  2613charge 0 multiplicity 1
 C         0.129809        -0.062605         0.394684
 C         1.112404         0.211241        -0.706957
 C         0.854361        -0.114698        -2.150982
 C         1.715080         0.896733        -2.974900
 C         1.277180         1.478218        -4.300297
 O         2.326771         0.550567        -4.286306
 C         2.590216         1.683435        -2.021083
 C         2.139814         1.277955        -0.626690
 O         2.492211        -0.089568        -0.372868
 H        -0.918589        -0.100680        -0.144109
 H         0.510017        -0.910111         0.961164
 H         0.109890         0.894159         1.026414
 H         1.009843        -1.142156        -2.443059
 H        -0.269978         0.057523        -2.198296
 H         0.291944         1.258767        -4.739525
 H         1.587165         2.466289        -4.676331
 H         3.636358         1.149951        -2.088279
 H         2.630035         2.764540        -2.271675
 H         2.334150         2.066242         0.137413
