19
Iteration:   827
 C        -0.130300         0.198902         0.010637
 C         1.226230         0.192546        -0.782707
 C         1.189334        -0.447697        -2.200349
 C         1.789871         0.758474        -2.994209
 C         1.033622         1.735444        -3.828245
 O         1.986612         0.755284        -4.385142
 C         2.994576         1.327483        -2.105623
 C         2.257465         1.222718        -0.782436
 O         2.405869         0.045806        -0.023449
 H        -0.020278         0.226823         1.008116
 H        -0.790607         0.994828        -0.239210
 H        -0.527498        -0.835118        -0.257741
 H         1.559685        -1.427166        -2.530759
 H         0.101910        -0.501243        -2.470585
 H        -0.018448         1.520651        -3.991236
 H         1.440983         2.769384        -3.882166
 H         3.808405         0.532335        -1.969869
 H         3.488989         2.284171        -2.416274
 H         2.189990         2.098279        -0.128577
