19
Iteration:  1637charge 0 multiplicity 1
 C         0.045847         0.151183         0.426140
 C         1.048861         0.170254        -0.744783
 C         0.939469        -0.231702        -2.252385
 C         1.804295         0.760381        -3.000798
 C         1.200188         1.654626        -4.069739
 O         2.216633         0.583241        -4.327100
 C         2.767859         1.587790        -1.987431
 C         2.108520         1.299369        -0.702712
 O         2.518599        -0.152140        -0.399760
 H         0.565290        -0.025863         1.272795
 H        -0.302013         1.166238         0.586829
 H        -0.693325        -0.724875         0.093048
 H         1.242910        -1.325737        -2.415839
 H        -0.112625        -0.235494        -2.626917
 H         0.199680         1.433990        -4.509130
 H         1.572059         2.652357        -4.189841
 H         3.882895         1.354016        -2.095054
 H         2.640110         2.670346        -2.400523
 H         2.109225         1.756475         0.273114
