19
Iteration:  2033charge 0 multiplicity 1
 C         0.114918        -0.203714         0.415144
 C         1.143008         0.215223        -0.663654
 C         0.805361        -0.076897        -2.156114
 C         1.746573         0.967694        -3.047061
 C         1.354386         1.534666        -4.338059
 O         2.255065         0.455605        -4.263713
 C         2.653890         1.666103        -2.061917
 C         2.066059         1.342405        -0.622887
 O         2.495792        -0.046644        -0.339574
 H        -0.934679         0.253830         0.261638
 H         0.084822        -1.197021         0.381309
 H         0.552620         0.218048         1.433168
 H         1.054740        -0.966745        -2.681070
 H        -0.234118         0.315207        -2.386176
 H         0.326981         1.372405        -4.631445
 H         1.878768         2.351575        -4.717281
 H         3.691691         1.321246        -2.033053
 H         2.701242         2.759636        -2.179165
 H         2.101674         2.006242         0.281142
