19
Iteration:  3458
 C         0.156420        -0.150448         0.374413
 C         1.134395         0.248154        -0.745980
 C         0.638924         0.230692        -2.161432
 C         1.648846         1.116986        -2.906548
 C         1.391847         1.297403        -4.363114
 O         2.434667         0.324590        -3.953618
 C         2.464925         1.916809        -1.956702
 C         2.287636         1.161633        -0.652802
 O         2.507283        -0.226913        -0.696275
 H        -0.197629        -1.274874         0.210196
 H         0.692813        -0.036075         1.266831
 H        -0.652705         0.556677         0.443176
 H         0.417289        -0.740133        -2.597723
 H        -0.433977         0.572471        -2.085870
 H         0.460003         0.880323        -4.751756
 H         1.697504         2.191040        -4.939976
 H         3.476226         2.226065        -2.234583
 H         1.984613         2.906857        -1.900208
 H         2.667209         1.615728         0.315405
