19
Iteration:   836
 C        -0.099700         0.213712        -0.039547
 C         1.177043         0.206705        -0.784769
 C         1.176647        -0.404525        -2.240276
 C         1.877996         0.799849        -2.934583
 C         1.045187         1.621962        -3.784902
 O         1.940476         0.758179        -4.428441
 C         2.974686         1.331067        -2.095725
 C         2.292443         1.275527        -0.728780
 O         2.416795         0.001642        -0.046577
 H         0.169312         0.158948         1.049866
 H        -0.706439         0.980799        -0.289661
 H        -0.827081        -0.659471        -0.375717
 H         1.597598        -1.441820        -2.384339
 H         0.084642        -0.313013        -2.471012
 H         0.079893         1.351698        -4.080941
 H         1.162628         2.691292        -3.831775
 H         3.760946         0.457482        -1.957061
 H         3.368291         2.310549        -2.318410
 H         2.107179         2.109177        -0.050807
