19
Iteration:  2879
 C         0.370329        -0.166439         0.445705
 C         1.117438         0.167615        -0.775722
 C         0.413823         0.331767        -2.194685
 C         1.579644         1.099245        -2.964843
 C         1.682059         1.382701        -4.394853
 O         2.281940         0.243086        -3.904740
 C         2.425185         1.924078        -1.883684
 C         2.225791         1.152709        -0.648668
 O         2.529393        -0.220781        -0.758258
 H         0.475796         0.597516         1.284784
 H        -0.685116        -0.413723         0.206030
 H         0.776464        -1.084301         0.731850
 H        -0.159116        -0.421071        -2.757700
 H        -0.432054         0.975790        -1.777615
 H         0.872768         1.169842        -5.096702
 H         2.373644         2.151167        -4.750744
 H         3.466774         1.792659        -2.143379
 H         2.045878         2.864451        -2.018258
 H         2.361974         1.622723         0.309871
