19
Iteration:  4229
 C         0.211965        -0.174430         0.296325
 C         1.207850         0.152744        -0.704441
 C         0.707926         0.114288        -2.205022
 C         1.676527         0.978111        -2.997761
 C         1.385108         1.534038        -4.356379
 O         2.267522         0.390909        -4.051418
 C         2.504042         1.735172        -2.012752
 C         2.170759         1.231593        -0.631668
 O         2.544059        -0.097081        -0.396150
 H         0.280371        -1.253288         0.181437
 H         0.433788         0.196215         1.274464
 H        -0.895879         0.083287         0.022800
 H         0.711142        -0.908681        -2.706461
 H        -0.332519         0.554975        -2.110173
 H         0.521696         1.210677        -4.877796
 H         1.995965         2.344451        -4.713170
 H         3.495079         1.625796        -2.391007
 H         2.125440         2.786957        -1.982663
 H         2.163299         2.119720         0.194138
