19
Iteration:  2003
 C         0.115580        -0.118726         0.331652
 C         1.086545         0.313160        -0.731016
 C         0.761962        -0.082819        -2.148013
 C         1.657050         0.945236        -2.957558
 C         1.348633         1.486003        -4.295213
 O         2.314874         0.437247        -4.156882
 C         2.561793         1.788491        -2.044087
 C         2.269667         1.226675        -0.603996
 O         2.500224        -0.115252        -0.452553
 H        -0.960738        -0.301650        -0.076076
 H         0.561560        -1.044001         0.799712
 H         0.126787         0.512179         1.151025
 H         1.185533        -1.028431        -2.529262
 H        -0.295534         0.152153        -2.452675
 H         0.339236         1.337230        -4.768270
 H         1.806058         2.462842        -4.571001
 H         3.660095         1.599555        -2.371792
 H         2.356121         2.902415        -1.961407
 H         2.413503         1.881554         0.292809
