19
Iteration:  1237
 C         0.168988         0.021400         0.486832
 C         1.088729         0.251049        -0.703110
 C         0.673187         0.021183        -2.107129
 C         1.713677         0.908394        -2.933605
 C         1.459043         1.467064        -4.261075
 O         2.403229         0.401052        -4.182207
 C         2.420262         1.828000        -1.964568
 C         2.191839         1.140958        -0.656470
 O         2.460643        -0.209319        -0.714223
 H         1.158829         0.253452         1.214740
 H        -0.378212         0.945887         0.747840
 H        -0.377304        -0.825524         0.632971
 H         0.820135        -0.982182        -2.505713
 H        -0.369847         0.193923        -2.361799
 H         0.571605         1.275272        -4.924523
 H         1.897402         2.521885        -4.456870
 H         3.468005         1.609713        -2.222989
 H         2.183660         2.859625        -1.977056
 H         2.463037         1.735850         0.238682
