19
Iteration:  4885
 C         0.378694        -0.265759         0.406764
 C         1.136239         0.248054        -0.764270
 C         0.453045         0.269790        -2.166928
 C         1.532669         0.991322        -2.917767
 C         1.638988         1.423429        -4.408695
 O         2.362350         0.336617        -3.970053
 C         2.372729         1.863921        -1.992437
 C         2.236200         1.193237        -0.637951
 O         2.501191        -0.169794        -0.610944
 H         1.041532        -0.410041         1.342327
 H        -0.506646         0.372215         0.564180
 H         0.147401        -1.293583         0.147866
 H         0.208404        -0.739828        -2.560026
 H        -0.478153         0.820754        -2.223397
 H         0.839634         1.239335        -5.127427
 H         2.151778         2.352174        -4.647095
 H         3.373203         1.865158        -2.387573
 H         1.987789         2.971747        -2.017286
 H         2.286320         1.781234         0.363938
