19
Iteration:  2286
 C         0.219200        -0.059694         0.504995
 C         1.098876         0.203955        -0.646395
 C         0.665487         0.137851        -2.254633
 C         1.648587         1.026447        -2.970360
 C         1.504058         1.308668        -4.389125
 O         2.450164         0.359116        -4.022297
 C         2.333747         1.968838        -1.932792
 C         2.172807         1.224266        -0.590678
 O         2.527025        -0.240723        -0.758530
 H        -0.506521         0.839059         0.739013
 H        -0.381207        -0.930844         0.391761
 H         0.853059        -0.356331         1.303819
 H         0.838550        -0.916175        -2.452195
 H        -0.408136         0.288627        -2.480939
 H         0.646845         0.815789        -4.810846
 H         1.841301         2.237197        -4.855774
 H         3.352041         2.199794        -2.312586
 H         1.893260         2.932173        -1.759163
 H         2.378826         1.589843         0.453828
