19
Iteration:  2400charge 0 multiplicity 1
 C         0.342787        -0.430179         0.335899
 C         1.086893         0.222864        -0.740682
 C         0.452356         0.493498        -2.174970
 C         1.627231         1.043807        -2.944102
 C         1.569547         1.180782        -4.415293
 O         2.362616         0.194059        -3.800667
 C         2.465416         2.026360        -2.063676
 C         2.141887         1.314567        -0.624104
 O         2.548757        -0.093358        -0.689556
 H        -0.735913        -0.358845         0.379565
 H         0.800112        -1.547643         0.366231
 H         0.661886        -0.133141         1.424882
 H        -0.081174        -0.466770        -2.563936
 H        -0.453067         1.239721        -2.162727
 H         0.688502         0.750989        -4.921730
 H         2.222620         1.984474        -4.791261
 H         3.524390         2.055628        -2.339635
 H         2.063004         3.055256        -1.937705
 H         2.345767         1.907327         0.296423
