19
Iteration:  1616charge 0 multiplicity 1
 C         0.072534         0.171211         0.292012
 C         1.094072         0.145567        -0.753377
 C         0.978605        -0.197925        -2.213351
 C         1.814757         0.868339        -2.979793
 C         1.187062         1.582937        -4.040556
 O         2.203816         0.622022        -4.436166
 C         2.717938         1.576190        -2.001594
 C         2.220211         1.218751        -0.677162
 O         2.405468        -0.139290        -0.290646
 H         0.625127         0.103325         1.147821
 H        -0.456631         1.079679         0.330838
 H        -0.577682        -0.820014         0.226751
 H         1.270398        -1.264176        -2.148790
 H        -0.076142        -0.286738        -2.459178
 H         0.210530         1.117564        -4.235472
 H         1.255348         2.639016        -4.184817
 H         3.655372         1.018786        -2.262313
 H         2.855831         2.700182        -2.090274
 H         2.313877         1.933982         0.164988
