19
Iteration:  1212charge 0 multiplicity 1
 C         0.238201        -0.107476         0.449933
 C         1.191131         0.271924        -0.701073
 C         0.573167         0.154372        -2.198022
 C         1.683249         0.968407        -2.953588
 C         1.552442         1.456482        -4.354774
 O         2.273237         0.305321        -3.957190
 C         2.414877         1.880120        -2.001842
 C         2.271060         1.192838        -0.628016
 O         2.508547        -0.227591        -0.688075
 H         0.619452         0.057619         1.441718
 H        -0.624552         0.611161         0.348610
 H        -0.210489        -1.131281         0.236675
 H         0.521801        -0.847342        -2.662106
 H        -0.490655         0.500660        -2.242231
 H         0.647387         1.187532        -4.875738
 H         2.085358         2.302263        -4.782618
 H         3.402442         2.001230        -2.410864
 H         1.924858         2.863731        -2.019803
 H         2.381379         1.723521         0.323053
