19
Iteration:   915
 C        -0.020184         0.273773         0.090122
 C         1.197071         0.129648        -0.746095
 C         1.012607        -0.316950        -2.202948
 C         1.721132         0.802803        -2.999712
 C         1.078496         1.627850        -4.123897
 O         2.126810         0.748142        -4.380189
 C         2.815428         1.470631        -2.004310
 C         2.248181         1.169834        -0.599919
 O         2.537661        -0.153857        -0.116258
 H         0.158191         0.887378         0.887381
 H        -0.771632         0.782364        -0.536275
 H        -0.477510        -0.689108         0.567585
 H         1.319134        -1.361152        -2.414725
 H        -0.086471        -0.223652        -2.377610
 H         0.052714         1.438496        -4.516493
 H         1.359839         2.703140        -4.130828
 H         3.801166         0.923336        -2.076094
 H         3.132439         2.544456        -2.252891
 H         2.098796         1.917975         0.220192
