19
Iteration:  4126
 C         0.003808         0.000012         0.387471
 C         1.139329         0.203830        -0.650443
 C         0.911838        -0.124377        -2.194947
 C         1.632382         0.975590        -3.007352
 C         1.281483         1.512113        -4.331075
 O         2.303881         0.544495        -4.193502
 C         2.555946         1.747706        -2.024459
 C         2.252553         1.209003        -0.652541
 O         2.566376        -0.164558        -0.407212
 H        -0.323830        -1.047694         0.172397
 H         0.210083         0.003218         1.490774
 H        -0.730939         0.665000         0.076084
 H         1.302712        -1.147144        -2.417902
 H        -0.123504        -0.277499        -2.251265
 H         0.303399         1.141928        -4.783095
 H         1.534277         2.573231        -4.612471
 H         3.632932         1.445086        -2.106818
 H         2.470808         2.814844        -2.059605
 H         2.325817         1.789970         0.165780
