19
Iteration:  3561charge 0 multiplicity 1
 C         0.131580        -0.005113         0.347239
 C         1.140289         0.128943        -0.722549
 C         0.830791         0.014349        -2.251886
 C         1.721786         0.956351        -2.982527
 C         1.320347         1.548595        -4.320432
 O         2.265000         0.366406        -4.166074
 C         2.586119         1.800833        -1.933073
 C         2.155704         1.251684        -0.613852
 O         2.524932        -0.171042        -0.440932
 H        -0.158813        -0.995077         0.440027
 H         0.807651         0.157979         1.288664
 H        -0.981705         0.381813         0.244689
 H         1.160065        -0.956375        -2.607998
 H        -0.237894         0.312113        -2.527669
 H         0.333260         1.157353        -4.587437
 H         1.612561         2.502720        -4.744516
 H         3.638150         1.681044        -2.143373
 H         2.253580         2.823537        -1.848515
 H         2.147785         1.778890         0.304411
