19
Iteration:  3801
 C         0.277615        -0.235380         0.547218
 C         1.064264         0.188552        -0.701830
 C         0.540274         0.250495        -2.176932
 C         1.593522         1.167305        -2.980878
 C         1.586598         1.241666        -4.462529
 O         2.467656         0.360475        -3.835408
 C         2.349049         1.970573        -2.040525
 C         2.220169         1.241360        -0.650680
 O         2.477988        -0.262144        -0.798256
 H        -0.357167        -1.134268         0.405527
 H         1.083800        -0.599146         1.357941
 H        -0.208159         0.661914         0.817795
 H         0.463201        -0.709472        -2.664717
 H        -0.434114         0.868451        -2.093747
 H         0.715448         0.860201        -4.995399
 H         2.100111         2.124877        -4.867945
 H         3.394742         2.073249        -2.346142
 H         1.831849         2.932103        -1.706508
 H         2.553336         1.769977         0.204458
