19
Iteration:  1244
 C         0.217295         0.071203         0.534126
 C         1.041281         0.234221        -0.691503
 C         0.693472        -0.003387        -2.178405
 C         1.729723         0.889622        -2.977992
 C         1.437416         1.485095        -4.319816
 O         2.392649         0.486224        -4.167110
 C         2.462840         1.787149        -2.002755
 C         2.193604         1.162732        -0.636106
 O         2.454841        -0.249399        -0.649712
 H         0.839241        -0.011036         1.366009
 H        -0.363827         1.021804         0.613928
 H        -0.355418        -0.912941         0.687766
 H         0.922567        -1.071219        -2.361821
 H        -0.375429         0.317311        -2.229696
 H         0.553651         1.100852        -4.796511
 H         1.794690         2.443271        -4.633012
 H         3.515047         1.579606        -2.209316
 H         2.136579         2.852664        -2.048027
 H         2.316392         1.687820         0.321041
