19
Iteration:   342charge 0 multiplicity 1
 C        -0.089202         0.387065        -0.182891
 C         1.227880         0.183671        -0.879564
 C         1.186662        -0.419310        -2.198266
 C         1.856854         0.834777        -2.957187
 C         0.989152         1.719854        -3.691659
 O         1.842524         0.885904        -4.452260
 C         3.038842         1.246089        -2.017563
 C         2.405137         1.100896        -0.675866
 O         2.331864        -0.202699        -0.033087
 H        -0.798758        -0.504116        -0.057871
 H         0.046724         0.914640         0.700206
 H        -0.571606         1.226189        -0.777254
 H         1.706953        -1.376700        -2.169231
 H         0.156400        -0.480684        -2.557592
 H        -0.033030         1.417948        -3.600013
 H         1.104201         2.789472        -3.808919
 H         3.945001         0.583733        -2.234965
 H         3.495274         2.188022        -2.041078
 H         2.610856         1.999078        -0.065720
