19
Iteration:  3620
 C         0.004411         0.030535         0.364825
 C         1.136225         0.229017        -0.616759
 C         0.846350        -0.080195        -2.149642
 C         1.652348         0.927919        -2.975806
 C         1.310273         1.456186        -4.359014
 O         2.375694         0.577007        -4.189069
 C         2.529950         1.787535        -2.036756
 C         2.215440         1.182189        -0.644143
 O         2.557860        -0.250495        -0.426267
 H        -0.592455        -0.818748         0.095994
 H         0.372963        -0.087668         1.330221
 H        -0.429948         0.952867         0.491151
 H         1.109452        -1.195919        -2.313054
 H        -0.202796        -0.038651        -2.537297
 H         0.438717         0.999033        -4.832074
 H         1.414409         2.527180        -4.639793
 H         3.571516         1.718534        -2.447382
 H         2.295695         2.874003        -2.165470
 H         2.600678         1.767429         0.255792
