19
Iteration:  3438
 C         0.253929        -0.121518         0.383788
 C         1.199249         0.294659        -0.727998
 C         0.565005         0.247314        -2.145310
 C         1.568223         0.981040        -2.939606
 C         1.547354         1.380598        -4.374319
 O         2.414860         0.320350        -3.841783
 C         2.263148         1.938476        -1.996418
 C         2.346519         1.160861        -0.700647
 O         2.519684        -0.286454        -0.735251
 H        -0.392152        -0.852523        -0.086387
 H         0.589779        -0.437601         1.352569
 H        -0.607237         0.644641         0.502709
 H         0.431976        -0.835278        -2.251283
 H        -0.560490         0.638061        -2.090120
 H         0.877542         0.976058        -5.113974
 H         1.995150         2.364988        -4.607176
 H         3.159133         2.140339        -2.556372
 H         1.788116         2.905348        -1.779068
 H         2.703602         1.649125         0.250795
