19
Iteration:  4266
 C         0.194194        -0.228277         0.471734
 C         1.100957         0.250231        -0.687192
 C         0.722556         0.202744        -2.170583
 C         1.713342         1.007462        -2.981070
 C         1.369993         1.328116        -4.396058
 O         2.446816         0.409278        -4.124988
 C         2.447328         1.844326        -1.937186
 C         2.145167         1.252328        -0.580775
 O         2.517969        -0.153524        -0.641055
 H        -0.415558        -1.092971         0.126792
 H         0.658261        -0.627609         1.446605
 H        -0.512839         0.502527         0.695080
 H         0.523542        -0.796729        -2.449743
 H        -0.301654         0.758407        -2.282411
 H         0.496939         0.840492        -4.880686
 H         1.638115         2.170936        -5.021606
 H         3.556331         2.039996        -2.097475
 H         2.042522         2.865631        -1.894189
 H         2.414214         1.685993         0.365382
