19
Iteration:  4040
 C         0.171123        -0.123307         0.297141
 C         1.130721         0.239977        -0.739772
 C         0.732474        -0.055337        -2.154423
 C         1.642850         0.934193        -2.991974
 C         1.283815         1.517601        -4.368747
 O         2.321148         0.543222        -4.125136
 C         2.635926         1.682336        -2.080889
 C         2.210957         1.249597        -0.644837
 O         2.470424        -0.076548        -0.297723
 H        -0.514922        -0.946429        -0.054975
 H         0.787980        -0.541354         1.193858
 H        -0.420260         0.569711         0.836251
 H         1.330228        -1.097692        -2.410285
 H        -0.300656        -0.010769        -2.213867
 H         0.398129         1.068613        -4.866009
 H         1.724371         2.462864        -4.746842
 H         3.685582         1.387761        -2.215994
 H         2.408600         2.709325        -2.311817
 H         2.387927         1.921291         0.144654
