19
Iteration:   178
 C         0.137957         0.121131         0.433820
 C         1.113316         0.159584        -0.717762
 C         0.773720         0.134146        -2.191354
 C         1.703450         1.005659        -2.996322
 C         1.323346         1.613637        -4.240550
 O         2.323876         0.560080        -4.260567
 C         2.652978         1.597461        -1.989399
 C         2.236851         1.088193        -0.637612
 O         2.368641        -0.432466        -0.477399
 H        -0.771683        -0.526165         0.248383
 H         0.556911        -0.257557         1.276103
 H        -0.013064         1.268192         0.672112
 H         1.047316        -0.904107        -2.301003
 H        -0.228200         0.326822        -2.615479
 H         0.326470         1.389918        -4.703517
 H         1.772077         2.550614        -4.563980
 H         3.760845         1.492064        -2.195743
 H         2.548653         2.660661        -1.902342
 H         2.466211         1.630965         0.339277
