19
Iteration:  2424
 C         0.271447        -0.391778         0.389209
 C         1.129352         0.293599        -0.649255
 C         0.601773         0.374244        -2.145000
 C         1.553424         1.101804        -3.006319
 C         1.579481         1.257606        -4.494703
 O         2.381197         0.245862        -3.842917
 C         2.368121         1.928137        -2.047875
 C         2.243914         1.282884        -0.654643
 O         2.476031        -0.107347        -0.673628
 H        -0.758558        -0.233979         0.302622
 H         0.611523        -1.480602         0.449496
 H         0.473064        -0.039906         1.575067
 H         0.322019        -0.603983        -2.512597
 H        -0.451563         0.711021        -1.865683
 H         0.718123         0.823453        -4.990091
 H         2.274914         1.971393        -4.964079
 H         3.401932         1.945720        -2.365999
 H         1.995856         2.972260        -1.882524
 H         2.576706         1.883402         0.203154
