19
Iteration:   212
 C        -0.007580         0.180804         0.246947
 C         1.124476         0.166816        -0.727084
 C         0.845834        -0.063213        -2.256322
 C         1.757038         0.882951        -2.958654
 C         1.223296         1.748858        -4.080295
 O         2.157497         0.639038        -4.321987
 C         2.841122         1.450987        -2.013308
 C         2.325130         1.088488        -0.641247
 O         2.457732        -0.313257        -0.296220
 H        -0.818506        -0.586453         0.190928
 H         0.332888         0.274548         1.196077
 H        -0.659694         1.130426        -0.114222
 H         1.177769        -1.091079        -2.458310
 H        -0.195882         0.015262        -2.615700
 H         0.168146         1.652755        -4.468792
 H         1.667424         2.766858        -4.236847
 H         3.871557         1.091819        -2.285512
 H         2.743040         2.520645        -1.954249
 H         2.407311         1.858342         0.181251
