19
Iteration:  4000charge 0 multiplicity 1
 C         0.144650        -0.060199         0.386423
 C         1.117361         0.154562        -0.688575
 C         0.789650         0.012079        -2.140113
 C         1.810938         0.920210        -2.979989
 C         1.352944         1.471474        -4.322288
 O         2.267508         0.399535        -4.210355
 C         2.541355         1.823808        -1.893169
 C         2.114325         1.239894        -0.625114
 O         2.552916        -0.136592        -0.555709
 H        -0.268043        -1.032733         0.292562
 H         0.598469         0.225818         1.267937
 H        -0.729624         0.595527        -0.002485
 H         0.804043        -0.937180        -2.414900
 H        -0.331672         0.234911        -2.443670
 H         0.392348         1.107637        -4.591895
 H         1.643845         2.427398        -4.682202
 H         3.561844         2.075961        -2.106541
 H         2.195334         2.919275        -1.902453
 H         2.407494         1.749182         0.373615
