19
Iteration:   714
 C        -0.019461         0.150278         0.347970
 C         1.137650         0.228831        -0.729815
 C         0.882029        -0.106689        -2.232045
 C         1.626751         0.951443        -3.001651
 C         1.266633         1.681764        -4.188334
 O         2.261852         0.521675        -4.295141
 C         2.665248         1.656369        -2.004053
 C         2.320006         1.132255        -0.619961
 O         2.514404        -0.341320        -0.330289
 H        -0.368903         1.248912         0.390795
 H        -0.784865        -0.482912         0.175587
 H         0.329222        -0.132324         1.337093
 H         1.269057        -1.082088        -2.636176
 H        -0.199364        -0.098165        -2.488556
 H         0.390148         1.293833        -4.654643
 H         1.565048         2.632780        -4.472356
 H         3.683801         1.170597        -2.284430
 H         2.537514         2.742051        -2.080578
 H         2.462524         1.806131         0.237826
