19
Iteration:  3297charge 0 multiplicity 1
 C         0.310687        -0.263136         0.467297
 C         1.122075         0.211398        -0.783160
 C         0.567221         0.284535        -2.177948
 C         1.663741         1.071542        -2.968554
 C         1.506054         1.331867        -4.411855
 O         2.319226         0.235680        -3.963558
 C         2.507839         1.912065        -1.941536
 C         2.134156         1.250809        -0.604874
 O         2.520644        -0.108398        -0.674089
 H         0.436018        -1.293903         0.529810
 H         0.529312         0.282736         1.370686
 H        -0.842952        -0.457975         0.136580
 H         0.450454        -0.677435        -2.675774
 H        -0.298417         0.879836        -2.210735
 H         0.514837         1.112999        -4.827985
 H         2.083053         2.094950        -4.949557
 H         3.531024         2.124953        -2.263938
 H         1.920199         2.947349        -1.911551
 H         2.350243         1.678591         0.434426
