19
Iteration:  1939
 C         0.195893        -0.058350         0.434827
 C         1.088453         0.210444        -0.661341
 C         0.614517         0.180616        -2.175025
 C         1.672259         1.004937        -3.012371
 C         1.368832         1.346928        -4.442714
 O         2.468071         0.449115        -3.974291
 C         2.427038         1.866947        -1.960210
 C         2.277525         1.121425        -0.639493
 O         2.515415        -0.258214        -0.615544
 H        -0.456440        -1.005744         0.263914
 H         0.853630        -0.305305         1.403687
 H        -0.440952         0.765261         0.465420
 H         0.632760        -0.892411        -2.547417
 H        -0.361412         0.617759        -2.368128
 H         0.482215         0.975853        -5.023512
 H         1.779823         2.334477        -4.774153
 H         3.359232         2.107958        -2.485160
 H         1.951197         2.840945        -1.862063
 H         2.587083         1.746476         0.225815
