19
Iteration:  2920
 C         0.258257        -0.375796         0.325146
 C         1.098015         0.333130        -0.735063
 C         0.479179         0.467175        -2.063820
 C         1.593796         1.101748        -2.920774
 C         1.564571         1.198301        -4.371932
 O         2.325558         0.218465        -3.800172
 C         2.513681         2.022665        -1.969068
 C         2.360965         1.192692        -0.650962
 O         2.445106        -0.183543        -0.866622
 H         0.032432         0.011408         1.426780
 H        -0.745653        -0.548592        -0.137281
 H         0.720870        -1.269718         0.547293
 H         0.157942        -0.451765        -2.519174
 H        -0.284572         1.278783        -2.241258
 H         0.639614         0.861398        -4.871688
 H         2.102343         2.026078        -4.834796
 H         3.637610         2.165030        -2.316959
 H         1.986372         2.981223        -1.570899
 H         2.849811         1.426106         0.205613
