19
Iteration:    52
 C         0.315442        -0.420862         0.324813
 C         1.140815         0.320104        -0.788104
 C         0.384082         0.772844        -2.036365
 C         1.576472         1.208469        -2.916186
 C         1.679045         1.203856        -4.343344
 O         2.244747         0.135036        -3.590850
 C         2.584184         1.910101        -1.915726
 C         2.332002         1.113217        -0.722870
 O         2.399114        -0.271331        -1.084041
 H         0.406029        -1.466361         0.073393
 H         0.392461        -0.136819         1.508377
 H        -0.668984        -0.260116         0.064065
 H        -0.296773         0.021992        -2.555691
 H        -0.252119         1.625317        -1.725282
 H         0.901656         0.984437        -5.053339
 H         2.423397         1.868889        -4.768043
 H         3.565205         2.174988        -2.296601
 H         2.298829         2.945928        -1.560073
 H         2.628982         1.439822         0.264105
