19
Iteration:  3491charge 0 multiplicity 1
 C         0.241602        -0.202303         0.382261
 C         1.102124         0.219565        -0.781529
 C         0.633830         0.237829        -2.203398
 C         1.719539         1.093640        -2.976202
 C         1.373723         1.352126        -4.381248
 O         2.358131         0.370440        -4.128648
 C         2.606447         1.760130        -1.914179
 C         2.105985         1.280233        -0.574753
 O         2.498198        -0.159612        -0.534936
 H         0.190149        -1.351276         0.628899
 H         0.601754         0.227820         1.272070
 H        -0.799908        -0.049271         0.293228
 H         0.534657        -0.783084        -2.509125
 H        -0.238890         0.712201        -1.947707
 H         0.445928         0.883342        -4.712603
 H         1.640700         2.288805        -4.901709
 H         3.657455         1.512828        -2.070743
 H         2.350235         2.819553        -2.067189
 H         2.370318         1.794488         0.397192
