19
Iteration:  4379charge 0 multiplicity 1
 C         0.354705        -0.441672         0.393393
 C         1.108952         0.330857        -0.788049
 C         0.479060         0.371820        -2.120872
 C         1.537530         1.125355        -2.937252
 C         1.566656         1.162646        -4.382291
 O         2.416250         0.290202        -3.707304
 C         2.451488         1.980040        -1.950441
 C         2.174935         1.296205        -0.723703
 O         2.439680        -0.114082        -0.848367
 H         0.699903        -1.447387         0.102552
 H         0.829627        -0.249004         1.305831
 H        -0.774170        -0.402950         0.549160
 H         0.601783        -0.719962        -2.509317
 H        -0.531533         0.849611        -2.116522
 H         0.704536         0.771899        -5.040293
 H         2.075760         2.080934        -4.924238
 H         3.507563         1.883811        -2.237226
 H         2.307365         3.093578        -1.902621
 H         2.647757         1.744500         0.158989
