19
Iteration:   936charge 0 multiplicity 1
 C        -0.021349         0.115579         0.262148
 C         1.106973         0.215890        -0.718041
 C         0.963494        -0.158209        -2.218400
 C         1.753802         0.870919        -3.005490
 C         1.142300         1.634399        -4.017216
 O         2.220610         0.638894        -4.376652
 C         2.822869         1.441514        -2.077445
 C         2.258120         1.239886        -0.729050
 O         2.441713        -0.147290        -0.202090
 H         0.145704         0.716647         1.093446
 H        -0.967846         0.306235        -0.245279
 H        -0.135566        -0.990665         0.754880
 H         1.433624        -1.156881        -2.388122
 H        -0.060392        -0.074030        -2.636435
 H         0.141553         1.292097        -4.262109
 H         1.331701         2.658912        -4.328325
 H         3.763486         0.892698        -2.320843
 H         3.024110         2.556819        -2.103074
 H         2.260438         1.939641         0.120236
