19
Iteration:  1096charge 0 multiplicity 1
 C         0.348310        -0.232058         0.452298
 C         1.155128         0.171940        -0.810235
 C         0.297405         0.447537        -2.124714
 C         1.514936         1.175846        -2.992879
 C         1.739100         1.305296        -4.427449
 O         2.408604         0.201171        -3.756710
 C         2.313688         2.008050        -2.016191
 C         2.229851         1.166762        -0.683162
 O         2.550335        -0.338551        -0.767150
 H         1.162865        -0.202164         1.302181
 H        -0.314531         0.570764         0.649041
 H        -0.180880        -1.100219         0.457295
 H        -0.161375        -0.382352        -2.669299
 H        -0.389122         1.243860        -1.820800
 H         0.842568         1.102247        -5.064078
 H         2.349113         2.188008        -4.785619
 H         3.406542         2.002901        -2.314413
 H         1.755112         2.990022        -1.902617
 H         2.855829         1.569075         0.139285
