19
Iteration:  1192
 C         0.209709        -0.255463         0.367872
 C         1.188237         0.227599        -0.734478
 C         0.578894         0.398751        -2.149100
 C         1.524080         1.173113        -3.029457
 C         1.515685         1.276051        -4.442369
 O         2.326690         0.243812        -3.925646
 C         2.478830         1.948046        -1.995058
 C         2.248867         1.136113        -0.639891
 O         2.543314        -0.212596        -0.574760
 H         0.799433        -0.035693         1.407222
 H        -0.760355         0.296265         0.346486
 H         0.075874        -1.308854         0.211977
 H         0.258968        -0.572076        -2.540988
 H        -0.316600         0.931611        -1.784987
 H         0.673617         1.005432        -5.103960
 H         2.086829         2.184967        -4.829662
 H         3.495667         1.910820        -2.331424
 H         2.011224         2.868636        -1.729163
 H         2.674788         1.683147         0.213264
