19
Iteration:  1526charge 0 multiplicity 1
 C         0.037377         0.145449         0.288246
 C         1.139306         0.194044        -0.801841
 C         1.016748        -0.268011        -2.278092
 C         1.850247         0.778052        -3.000842
 C         1.176694         1.657929        -3.906990
 O         2.078833         0.659003        -4.413748
 C         2.895558         1.500078        -2.075984
 C         2.175187         1.285109        -0.729120
 O         2.365624        -0.128712        -0.179779
 H         0.175809         0.874629         1.056917
 H        -1.049775         0.292676        -0.013202
 H         0.130571        -0.862981         0.888944
 H         1.565007        -1.236687        -2.470574
 H         0.090269        -0.348281        -2.888311
 H         0.159551         1.388837        -4.117850
 H         1.485566         2.724840        -3.911048
 H         3.837991         0.923707        -2.228283
 H         2.874504         2.585109        -2.406432
 H         1.968931         1.987796         0.022328
