19
Iteration:   653
 C         0.146408        -0.200813         0.485557
 C         1.047246         0.315283        -0.694451
 C         0.601125         0.303991        -2.178237
 C         1.688484         0.991822        -2.925993
 C         1.469767         1.497461        -4.319882
 O         2.311494         0.370354        -4.018303
 C         2.648991         1.701844        -1.977433
 C         2.303655         1.149600        -0.695383
 O         2.438167        -0.237767        -0.707594
 H        -0.844637        -0.129006         0.155564
 H         0.284254        -1.334486         0.727627
 H         0.245002         0.557629         1.362808
 H         0.453260        -0.711066        -2.528842
 H        -0.325468         0.907829        -2.241146
 H         0.527903         1.166363        -4.849149
 H         1.937508         2.428796        -4.775848
 H         3.658130         1.709844        -2.288264
 H         2.439421         2.776324        -2.083711
 H         2.611380         1.711025         0.185695
