19
Iteration:  3985charge 0 multiplicity 1
 C         0.148849        -0.025116         0.315242
 C         1.186154         0.192731        -0.803987
 C         0.739048         0.042448        -2.198340
 C         1.656496         0.970899        -2.941856
 C         1.333306         1.423179        -4.277023
 O         2.334536         0.385262        -4.117014
 C         2.473253         1.871913        -1.936205
 C         2.247982         1.214136        -0.587103
 O         2.561806        -0.204062        -0.521680
 H         0.010932        -1.097836         0.662233
 H         0.389159         0.394892         1.393231
 H        -0.778870         0.406674         0.058973
 H         0.783132        -1.051129        -2.742992
 H        -0.260515         0.375961        -2.266426
 H         0.384086         1.293333        -4.841127
 H         1.769287         2.361291        -4.681263
 H         3.550807         1.838141        -2.152088
 H         2.006412         2.847286        -1.988468
 H         2.240932         1.765148         0.309507
