19
Iteration:  4228
 C         0.206247        -0.171388         0.297053
 C         1.197446         0.152585        -0.704538
 C         0.707680         0.112915        -2.195535
 C         1.676738         0.978298        -3.000434
 C         1.387572         1.536035        -4.358484
 O         2.263011         0.390990        -4.048029
 C         2.504514         1.734988        -2.015412
 C         2.181447         1.236873        -0.628153
 O         2.548375        -0.096281        -0.399182
 H         0.311298        -1.259285         0.186956
 H         0.424839         0.192628         1.252926
 H        -0.897700         0.068705         0.005823
 H         0.742719        -0.916027        -2.713696
 H        -0.314086         0.505342        -2.137830
 H         0.507694         1.225174        -4.893254
 H         2.004723         2.370140        -4.700406
 H         3.484822         1.584519        -2.379421
 H         2.124300         2.782760        -1.996613
 H         2.143034         2.087457         0.187600
