19
Iteration:  4622
 C         0.223395        -0.087297         0.401603
 C         1.125611         0.186370        -0.738591
 C         0.772510        -0.129726        -2.222898
 C         1.617852         0.938106        -2.975556
 C         1.351004         1.497297        -4.246195
 O         2.378118         0.576055        -4.235545
 C         2.517384         1.708784        -2.035689
 C         2.176793         1.236155        -0.691969
 O         2.474253        -0.106498        -0.354158
 H         0.549267        -0.977135         0.945400
 H         0.214225         0.775644         1.172522
 H        -0.824006        -0.307046         0.109500
 H         0.868336        -1.263791        -2.517701
 H        -0.354171        -0.083456        -2.460594
 H         0.488933         1.392860        -4.902322
 H         1.823058         2.496054        -4.300565
 H         3.548145         1.787607        -2.237763
 H         2.209620         2.769160        -2.084131
 H         2.276344         2.024124         0.203142
