19
Iteration:  2133charge 0 multiplicity 1
 C         0.110549         0.114706         0.303100
 C         1.203794         0.079533        -0.834052
 C         0.912483        -0.139398        -2.213420
 C         1.686015         0.866127        -3.009255
 C         1.196679         1.432127        -4.241049
 O         2.331852         0.574298        -4.213718
 C         2.587329         1.847914        -1.946304
 C         2.176063         1.218874        -0.634000
 O         2.510719        -0.194700        -0.274144
 H        -0.609827         1.091241         0.173589
 H        -0.522380        -0.721974         0.073106
 H         0.555521         0.159396         1.312691
 H         1.185348        -1.149951        -2.543906
 H        -0.204294        -0.153212        -2.495277
 H         0.381247         0.857695        -4.640539
 H         1.306262         2.472519        -4.530324
 H         3.644489         1.929338        -2.310242
 H         2.082395         2.791597        -2.187315
 H         2.083610         1.928870         0.241836
