19
Iteration:   660charge 0 multiplicity 1
 C         0.151183        -0.157760         0.502322
 C         1.066230         0.293711        -0.698633
 C         0.589072         0.260699        -2.173933
 C         1.724662         0.982786        -2.979560
 C         1.416679         1.505848        -4.300154
 O         2.320441         0.398020        -4.069741
 C         2.624970         1.704372        -1.997730
 C         2.283395         1.172047        -0.631782
 O         2.458631        -0.265925        -0.675374
 H        -0.886946         0.015226         0.070016
 H         0.180138        -1.142157         0.771688
 H         0.350404         0.482781         1.424107
 H         0.453590        -0.747662        -2.632047
 H        -0.303350         0.784365        -2.561650
 H         0.559391         1.328174        -4.916856
 H         2.003804         2.324235        -4.566701
 H         3.756960         1.469165        -2.227088
 H         2.396345         2.757192        -1.930622
 H         2.599235         1.789765         0.224918
