19
Iteration:  3699charge 0 multiplicity 1
 C         0.119303        -0.253087         0.362238
 C         1.134795         0.372174        -0.669038
 C         0.668484         0.165501        -2.180857
 C         1.605652         0.927794        -2.990272
 C         1.342652         1.416217        -4.369450
 O         2.384094         0.474639        -4.075549
 C         2.635004         1.747393        -2.035407
 C         2.219804         1.275597        -0.679255
 O         2.488754        -0.166058        -0.420486
 H         0.406856        -1.369622         0.425252
 H         0.391988         0.133492         1.298135
 H        -0.893100        -0.288308         0.030470
 H         0.694148        -0.980691        -2.378317
 H        -0.391949         0.511542        -2.255052
 H         0.456951         1.086902        -4.965112
 H         1.861379         2.291924        -4.780628
 H         3.628559         1.405260        -2.449416
 H         2.558527         2.896567        -2.075837
 H         2.462666         1.884723         0.219676
