19
Iteration:  3302charge 0 multiplicity 1
 C         0.285548        -0.290141         0.379194
 C         1.109269         0.196264        -0.758364
 C         0.559842         0.291322        -2.204045
 C         1.717880         1.085476        -2.952266
 C         1.508712         1.305429        -4.408200
 O         2.267207         0.225229        -3.940170
 C         2.480916         1.956667        -1.954901
 C         2.170335         1.227512        -0.566939
 O         2.541532        -0.092328        -0.665590
 H         0.570323        -1.400929         0.671658
 H         0.544903         0.351975         1.268640
 H        -0.694621        -0.188886         0.120941
 H         0.425351        -0.674140        -2.753910
 H        -0.353836         1.002589        -2.083172
 H         0.547277         1.016204        -4.856686
 H         2.076105         2.096024        -4.919941
 H         3.517786         2.109939        -2.317089
 H         1.918676         2.825673        -1.790583
 H         2.368968         1.780835         0.320894
