19
Iteration:  3858
 C         0.262510        -0.412778         0.317551
 C         1.155823         0.231633        -0.684905
 C         0.493507         0.377285        -2.118456
 C         1.614877         1.062449        -2.953193
 C         1.550475         1.261440        -4.446502
 O         2.370422         0.211554        -3.750607
 C         2.333985         2.086680        -2.036353
 C         2.302710         1.266636        -0.678497
 O         2.528898        -0.154511        -0.731668
 H        -0.460246        -1.074707        -0.076221
 H         0.829158        -0.836881         1.111120
 H        -0.361884         0.383336         0.843728
 H         0.261075        -0.519602        -2.553685
 H        -0.543030         0.825653        -2.088862
 H         0.791720         0.952252        -5.132476
 H         2.219010         2.033203        -4.762967
 H         3.337812         2.203607        -2.445012
 H         2.080790         3.128929        -1.790847
 H         2.742151         1.826274         0.202527
