19
Iteration:  2451charge 0 multiplicity 1
 C         0.289781        -0.128540         0.379200
 C         1.101821         0.245623        -0.754079
 C         0.590023         0.165976        -2.196061
 C         1.650395         0.946777        -2.981555
 C         1.471982         1.340791        -4.299049
 O         2.424816         0.255903        -3.892616
 C         2.362437         1.972243        -1.957872
 C         2.207116         1.250743        -0.656764
 O         2.546150        -0.137780        -0.734798
 H        -0.801419         0.297897         0.279229
 H         0.133863        -1.199367         0.467179
 H         0.655742         0.166375         1.280142
 H         0.434138        -0.892776        -2.545165
 H        -0.437569         0.521775        -2.099028
 H         0.600328         0.964539        -4.870551
 H         1.979033         2.207122        -4.723071
 H         3.447085         2.094695        -2.205434
 H         1.861399         2.955204        -1.861823
 H         2.367274         1.787153         0.290837
