19
Iteration:  4974charge 0 multiplicity 1
 C         0.155572        -0.106453         0.421745
 C         1.196768         0.120360        -0.699966
 C         0.676809         0.056083        -2.175486
 C         1.571728         1.005466        -3.054633
 C         1.386517         1.547101        -4.393881
 O         2.378430         0.432710        -4.104474
 C         2.452589         1.912398        -1.979480
 C         2.261298         1.105807        -0.658017
 O         2.548075        -0.219711        -0.448777
 H         0.627220        -0.017233         1.466542
 H        -0.594762         0.657945         0.366060
 H        -0.317978        -1.086514         0.439344
 H         0.861641        -0.931074        -2.594975
 H        -0.339358         0.285742        -2.231172
 H         0.466016         1.233304        -4.884080
 H         1.879235         2.454638        -4.713247
 H         3.464562         2.040097        -2.441341
 H         2.080844         2.993212        -1.917419
 H         2.487795         1.587923         0.221668
