19
Iteration:  1167
 C         0.272896        -0.408334         0.318916
 C         1.143896         0.278083        -0.761459
 C         0.466922         0.582342        -2.107470
 C         1.669454         1.055386        -2.970449
 C         1.457892         1.197415        -4.429390
 O         2.371294         0.250537        -3.783101
 C         2.516166         1.939830        -1.962158
 C         2.239109         1.250119        -0.625387
 O         2.491321        -0.168232        -0.745589
 H         0.770248        -0.192585         1.199251
 H        -0.792699        -0.041196         0.346179
 H         0.318073        -1.574142         0.141619
 H        -0.006816        -0.348162        -2.473148
 H        -0.266293         1.424844        -2.013623
 H         0.503634         0.817390        -4.776697
 H         1.988207         1.725679        -5.168525
 H         3.540868         1.756320        -2.217425
 H         2.120838         2.943404        -1.970721
 H         2.678102         1.753409         0.226962
