19
Iteration:  4477
 C         0.256715        -0.093883         0.521338
 C         1.148835         0.206364        -0.697214
 C         0.724112        -0.009210        -2.224732
 C         1.570771         0.999525        -2.954743
 C         1.395096         1.407562        -4.339279
 O         2.459812         0.507618        -4.000317
 C         2.426092         1.788900        -2.022522
 C         2.111959         1.308646        -0.703478
 O         2.471109        -0.212701        -0.606545
 H         0.270543        -1.219229         0.580768
 H         0.777706         0.207845         1.409366
 H        -0.817692         0.372921         0.488812
 H         1.159958        -0.981050        -2.751443
 H        -0.407599        -0.018407        -2.551109
 H         0.604554         1.027872        -5.096573
 H         1.667625         2.458954        -4.765178
 H         3.480691         1.602111        -2.293677
 H         2.400813         2.899775        -2.064542
 H         2.215249         1.958444         0.186877
