19
Iteration:  3583charge 0 multiplicity 1
 C         0.121829        -0.002764         0.335824
 C         1.108565         0.215857        -0.780756
 C         0.799379        -0.011503        -2.238504
 C         1.716778         0.952157        -2.940992
 C         1.207368         1.351462        -4.241830
 O         2.385981         0.573396        -4.173441
 C         2.610570         1.814364        -2.039204
 C         2.197440         1.214655        -0.602936
 O         2.515939        -0.256172        -0.396128
 H        -0.544211        -0.800527         0.235553
 H         0.732005         0.089007         1.339198
 H        -0.759598         0.768148         0.067045
 H         0.887148        -1.067208        -2.471176
 H        -0.231256         0.420074        -2.438374
 H         0.340602         0.792810        -4.628238
 H         1.370445         2.367240        -4.606298
 H         3.669320         1.675681        -2.245315
 H         2.366946         2.853219        -1.937233
 H         2.451382         1.734629         0.282033
