19
Iteration:   473
 C         0.071859        -0.023749         0.384371
 C         1.116992         0.316120        -0.737232
 C         0.686703         0.171051        -2.149578
 C         1.645362         1.061280        -2.943186
 C         1.428525         1.655537        -4.273732
 O         2.172557         0.395371        -4.172355
 C         2.782069         1.669115        -2.036272
 C         2.360070         1.098671        -0.651402
 O         2.419264        -0.380065        -0.497401
 H         0.195320        -1.160629         0.618837
 H         0.202270         0.467444         1.308995
 H        -1.013461        -0.021441         0.057880
 H         0.726720        -0.874366        -2.512088
 H        -0.356878         0.437570        -2.271161
 H         0.512137         1.611938        -4.770101
 H         2.019869         2.484646        -4.643319
 H         3.861011         1.354730        -2.125717
 H         2.495155         2.647836        -1.895539
 H         2.634820         1.746981         0.211828
