19
Iteration:  2990charge 0 multiplicity 1
 C         0.347081        -0.194840         0.453823
 C         1.114321         0.320166        -0.722957
 C         0.549647         0.275405        -2.185578
 C         1.611909         1.057716        -2.928088
 C         1.643552         1.391402        -4.388392
 O         2.286536         0.244908        -3.932378
 C         2.357321         1.901568        -1.916103
 C         2.219098         1.184110        -0.649211
 O         2.493502        -0.268826        -0.778115
 H         0.801053        -0.258221         1.381595
 H        -0.479187         0.488638         0.525015
 H        -0.026090        -1.278155         0.285908
 H         0.371644        -0.783635        -2.635631
 H        -0.356458         0.972821        -2.073048
 H         0.771390         1.355730        -5.042134
 H         2.369459         2.196331        -4.669479
 H         3.340610         2.044654        -2.245184
 H         1.831321         2.806621        -1.964226
 H         2.628516         1.921457         0.223050
