19
Iteration:  2820
 C         0.138749        -0.060338         0.345586
 C         1.122511         0.292395        -0.730633
 C         0.633166         0.205369        -2.175718
 C         1.714317         1.001222        -2.919411
 C         1.313461         1.386391        -4.296828
 O         2.379486         0.391374        -4.075283
 C         2.546239         1.837791        -1.907976
 C         2.273863         1.107401        -0.626583
 O         2.529132        -0.257602        -0.682414
 H         0.510920         0.202851         1.400584
 H        -0.761751         0.533677         0.265237
 H        -0.081155        -1.159473         0.558182
 H         0.873777        -0.826371        -2.502362
 H        -0.485410         0.558637        -2.189171
 H         0.471612         0.895090        -4.813567
 H         1.608571         2.381207        -4.694359
 H         3.654687         1.972379        -2.129812
 H         2.092842         2.815111        -2.019326
 H         2.526201         1.559716         0.362499
