19
Iteration:  2036
 C         0.131803        -0.189248         0.420560
 C         1.124303         0.214896        -0.701187
 C         0.804426        -0.083337        -2.173400
 C         1.744665         0.971276        -3.042968
 C         1.353959         1.532717        -4.315629
 O         2.250373         0.455183        -4.270005
 C         2.652020         1.676130        -2.044304
 C         2.092750         1.314430        -0.637866
 O         2.501977        -0.017336        -0.311528
 H        -0.919855         0.301963         0.354827
 H        -0.013581        -1.308955         0.298304
 H         0.541769         0.150552         1.292483
 H         0.927267        -1.055945        -2.741196
 H        -0.287532         0.269764        -2.286839
 H         0.311025         1.285749        -4.626108
 H         1.892157         2.400531        -4.765564
 H         3.729570         1.288268        -1.923518
 H         2.754740         2.792076        -2.247167
 H         2.029362         1.954580         0.269762
