19
Iteration:  2056charge 0 multiplicity 1
 C         0.185248        -0.156810         0.282228
 C         1.142910         0.201729        -0.782007
 C         0.769181        -0.014989        -2.253151
 C         1.712773         0.878001        -3.013545
 C         1.255018         1.499267        -4.239179
 O         2.279973         0.446570        -4.229548
 C         2.670290         1.632991        -2.010686
 C         2.076170         1.319983        -0.628661
 O         2.531850        -0.001830        -0.213807
 H        -0.566515         0.754670         0.407101
 H        -0.338997        -1.014637         0.102256
 H         0.839843        -0.199466         1.182675
 H         1.092045        -1.010953        -2.546952
 H        -0.218505         0.324158        -2.689225
 H         0.343831         1.251412        -4.772850
 H         1.623840         2.494539        -4.253628
 H         3.719574         1.374773        -2.319557
 H         2.559259         2.745032        -2.009817
 H         2.066771         2.163518         0.121517
