19
Iteration:  4190charge 0 multiplicity 1
 C         0.097505        -0.161343         0.436796
 C         1.106599         0.246488        -0.707066
 C         0.848315        -0.028495        -2.129423
 C         1.745246         0.946358        -2.963051
 C         1.344702         1.539155        -4.308480
 O         2.287561         0.431459        -4.218605
 C         2.577687         1.753322        -1.997761
 C         2.211249         1.278903        -0.621972
 O         2.440637        -0.116315        -0.540064
 H         0.338607        -1.176791         0.847415
 H         0.001618         0.520117         1.375914
 H        -0.888326        -0.276422         0.079321
 H         1.203671        -0.988671        -2.399585
 H        -0.164994         0.081916        -2.585199
 H         0.288924         1.342927        -4.676021
 H         1.712273         2.548623        -4.627664
 H         3.730379         1.751361        -2.057085
 H         2.474479         2.806620        -2.244343
 H         2.325424         1.777848         0.295059
