19
Iteration:  2544
 C         0.099455        -0.055907         0.268263
 C         1.161615         0.190131        -0.744521
 C         0.815297        -0.008579        -2.171591
 C         1.767017         0.922938        -2.920606
 C         1.302632         1.377947        -4.265707
 O         2.250705         0.382968        -4.181523
 C         2.569462         1.786979        -1.961032
 C         2.114641         1.333795        -0.576245
 O         2.594441        -0.041673        -0.501787
 H        -0.407077         0.773932         0.567646
 H        -0.601994        -0.843888        -0.006856
 H         0.515574        -0.532489         1.282815
 H         0.987707        -1.073051        -2.346341
 H        -0.182987         0.191577        -2.658192
 H         0.327519         1.124092        -4.656790
 H         1.583603         2.309214        -4.738677
 H         3.636560         1.617638        -2.075620
 H         2.270427         2.832321        -1.943693
 H         2.242106         1.895830         0.346355
