19
Iteration:  2807charge 0 multiplicity 1
 C         0.124197        -0.018395         0.366146
 C         1.139077         0.139721        -0.749275
 C         0.769740         0.150641        -2.188840
 C         1.697600         1.020369        -2.949736
 C         1.316163         1.373351        -4.298143
 O         2.308117         0.423445        -4.060376
 C         2.535272         1.821008        -1.943062
 C         2.271314         1.191319        -0.590707
 O         2.536640        -0.247552        -0.619227
 H         0.596696         0.073257         1.273324
 H        -0.660872         0.698627         0.187439
 H        -0.430877        -1.040611         0.043555
 H         0.454919        -0.805814        -2.653528
 H        -0.182315         0.666111        -2.378845
 H         0.318257         1.041793        -4.628758
 H         1.687728         2.334384        -4.715253
 H         3.574969         1.724082        -2.292163
 H         2.245963         2.860926        -1.717474
 H         2.496180         1.810367         0.381129
