19
Iteration:  1093charge 0 multiplicity 1
 C         0.354119        -0.216080         0.453354
 C         1.151273         0.159158        -0.801345
 C         0.309308         0.425215        -2.118240
 C         1.517455         1.161141        -2.986886
 C         1.717629         1.333698        -4.444759
 O         2.431668         0.206709        -3.756697
 C         2.329674         1.990943        -2.006441
 C         2.229987         1.142317        -0.673189
 O         2.536940        -0.324688        -0.774067
 H         1.150297        -0.139226         1.259303
 H        -0.309063         0.692069         0.679139
 H        -0.260827        -1.094277         0.422398
 H        -0.220512        -0.339124        -2.695690
 H        -0.436720         1.189411        -1.839742
 H         0.780243         1.039406        -5.015389
 H         2.328413         2.218189        -4.791425
 H         3.368038         2.102587        -2.307876
 H         1.790349         2.975334        -1.986161
 H         2.851011         1.589662         0.080177
