19
Iteration:   556
 C         0.357226        -0.291154         0.437609
 C         1.028723         0.386729        -0.742797
 C         0.320020         0.625057        -2.096228
 C         1.577485         1.230781        -2.888598
 C         1.750522         1.254119        -4.353156
 O         2.336057         0.199092        -3.664496
 C         2.495787         1.976794        -1.948967
 C         2.381874         1.011747        -0.784226
 O         2.343442        -0.382465        -1.041391
 H        -0.083451        -1.194933         0.093405
 H         1.156571        -0.547052         1.273330
 H        -0.432628         0.335602         0.799999
 H         0.096156        -0.363330        -2.490842
 H        -0.566041         1.298619        -2.037341
 H         0.822230         0.906394        -4.896330
 H         2.402691         2.046693        -4.866475
 H         3.492067         2.105223        -2.272180
 H         2.399046         3.072759        -1.626070
 H         2.742771         1.256489         0.210189
