19
Iteration:  4609charge 0 multiplicity 1
 C         0.239142        -0.105090         0.441344
 C         1.093286         0.200517        -0.743255
 C         0.796533        -0.079058        -2.231725
 C         1.728156         0.804473        -3.035026
 C         1.303617         1.587569        -4.244845
 O         2.416175         0.560923        -4.277891
 C         2.496373         1.692421        -2.056173
 C         2.126005         1.283939        -0.639054
 O         2.469455        -0.116850        -0.319169
 H         0.510365        -1.087314         0.758015
 H         0.395404         0.636815         1.258503
 H        -0.907650        -0.208717         0.249066
 H         0.895358        -1.128485        -2.562407
 H        -0.190398         0.393022        -2.293869
 H         0.421404         1.213238        -4.715419
 H         1.395517         2.623255        -4.404467
 H         3.466243         1.461326        -2.319020
 H         2.215023         2.729864        -2.177309
 H         2.087668         1.967475         0.244490
