19
Iteration:   210charge 0 multiplicity 1
 C        -0.004076         0.198902         0.253730
 C         1.116647         0.153150        -0.736633
 C         0.830437        -0.075045        -2.268886
 C         1.747557         0.885203        -2.960782
 C         1.222902         1.740735        -4.096195
 O         2.163781         0.640302        -4.323532
 C         2.843167         1.465593        -1.995848
 C         2.333099         1.088168        -0.641926
 O         2.461825        -0.307025        -0.298709
 H        -0.806117        -0.622878         0.205368
 H         0.361646         0.186006         1.260290
 H        -0.633099         1.139781        -0.034626
 H         1.124205        -1.098787        -2.444383
 H        -0.214062         0.076619        -2.647328
 H         0.212543         1.669831        -4.512573
 H         1.652947         2.697571        -4.251995
 H         3.886991         1.115649        -2.225383
 H         2.717852         2.517658        -1.878835
 H         2.459758         1.820562         0.225655
