19
Iteration:  2695charge 0 multiplicity 1
 C         0.073916        -0.000689         0.296627
 C         1.151723         0.182908        -0.692974
 C         0.880639        -0.030076        -2.173585
 C         1.681647         0.969842        -2.931551
 C         1.273966         1.488940        -4.310762
 O         2.237024         0.547471        -4.238442
 C         2.628341         1.670520        -2.039734
 C         2.234894         1.216927        -0.657811
 O         2.532780        -0.199913        -0.310943
 H         0.064101        -1.043237         0.576424
 H         0.132897         0.478722         1.305053
 H        -0.934465         0.194546        -0.125048
 H         1.003375        -1.083701        -2.561882
 H        -0.146269         0.249473        -2.223086
 H         0.291295         1.144006        -4.700488
 H         1.533056         2.506573        -4.608731
 H         3.619846         1.489695        -2.359867
 H         2.554198         2.783268        -2.003891
 H         2.317204         2.059498        -0.005072
