19
Iteration:   208charge 0 multiplicity 1
 C        -0.007833         0.218892         0.256484
 C         1.111632         0.142163        -0.748892
 C         0.813811        -0.088177        -2.278486
 C         1.740074         0.892478        -2.967171
 C         1.224640         1.728053        -4.110804
 O         2.168734         0.641879        -4.324847
 C         2.842768         1.477866        -1.977178
 C         2.339186         1.085011        -0.637940
 O         2.463633        -0.300912        -0.302214
 H        -0.744506        -0.641961         0.210026
 H         0.401832         0.111227         1.363328
 H        -0.568518         1.109303         0.084144
 H         1.070762        -1.132216        -2.446831
 H        -0.215357         0.134045        -2.650462
 H         0.257359         1.668098        -4.554260
 H         1.659997         2.665665        -4.271199
 H         3.873788         1.156370        -2.156921
 H         2.713549         2.567464        -1.836190
 H         2.509760         1.746979         0.238963
