19
Iteration:  4323
 C         0.301824        -0.167242         0.480915
 C         1.194701         0.074923        -0.814616
 C         0.499038         0.281499        -2.128858
 C         1.551080         1.039351        -2.981109
 C         1.637571         1.345133        -4.487200
 O         2.425911         0.291114        -3.795900
 C         2.168585         2.062245        -1.932478
 C         2.230366         1.176836        -0.616366
 O         2.596275        -0.187906        -0.809500
 H        -0.589611        -0.816904         0.220340
 H         0.918667        -0.608859         1.254809
 H        -0.121049         0.786768         0.818078
 H         0.229612        -0.722724        -2.595967
 H        -0.500403         0.857281        -1.992509
 H         0.930566         0.762522        -5.159109
 H         2.461496         2.032582        -4.876385
 H         3.191603         2.325979        -2.351430
 H         1.430719         2.892654        -1.852435
 H         2.552318         1.402096         0.358745
