19
Iteration:  4923charge 0 multiplicity 1
 C         0.113950        -0.187798         0.455184
 C         1.157528         0.222609        -0.761815
 C         0.694481         0.170076        -2.194906
 C         1.713362         1.065923        -2.944787
 C         1.384250         1.256602        -4.277563
 O         2.370845         0.426154        -4.032881
 C         2.478433         1.978757        -1.894915
 C         2.239386         1.159122        -0.611642
 O         2.530521        -0.196155        -0.772289
 H         0.483160        -0.511078         1.405703
 H        -0.527373         0.689357         0.707956
 H        -0.683571        -0.961342         0.152711
 H         0.866901        -0.793874        -2.670738
 H        -0.416700         0.549469        -2.178984
 H         0.451201         0.767183        -4.700395
 H         1.628839         2.149704        -4.923209
 H         3.567986         2.091970        -2.234141
 H         2.156280         2.962126        -1.871844
 H         2.532960         1.712363         0.337773
