19
Iteration:  1796charge 0 multiplicity 1
 C         0.318641        -0.171136         0.400970
 C         1.087299         0.248313        -0.768709
 C         0.434777         0.408916        -2.164421
 C         1.676208         1.093224        -2.945891
 C         1.527586         1.328106        -4.377705
 O         2.433554         0.250518        -3.788278
 C         2.343699         1.931289        -1.935238
 C         2.264285         1.088626        -0.676666
 O         2.543220        -0.290381        -0.834498
 H         0.861671         0.020892         1.424737
 H        -0.604666         0.453104         0.559861
 H         0.117948        -1.167148         0.395427
 H         0.141029        -0.507366        -2.638878
 H        -0.328126         1.162537        -2.195382
 H         0.676712         0.821357        -4.888261
 H         1.944738         2.249132        -4.799698
 H         3.280256         2.233603        -2.350503
 H         1.856452         2.867004        -1.771179
 H         2.452620         1.683813         0.220213
