19
Iteration:   274charge 0 multiplicity 1
 C        -0.104431         0.217143         0.018403
 C         1.192275         0.190431        -0.750743
 C         1.134886        -0.325738        -2.279489
 C         1.921370         0.847869        -3.041465
 C         1.112960         1.804768        -3.718347
 O         1.893800         0.843885        -4.469085
 C         3.047703         1.205297        -2.103113
 C         2.255164         1.198318        -0.796531
 O         2.304414        -0.210029         0.028136
 H         0.017525        -0.583681         0.821925
 H        -0.133162         1.231196         0.618180
 H        -0.940682         0.368520        -0.589121
 H         1.561204        -1.305635        -2.419849
 H         0.096337        -0.219393        -2.719042
 H         0.055863         1.772626        -3.836406
 H         1.560962         2.732663        -3.670591
 H         3.679862         0.285585        -2.272791
 H         3.652618         2.101406        -2.255944
 H         2.393403         2.144212        -0.179847
