19
Iteration:  1619
 C         0.075986         0.170186         0.302010
 C         1.106486         0.149840        -0.754602
 C         0.974646        -0.210904        -2.211008
 C         1.837258         0.863870        -2.973098
 C         1.207590         1.573254        -4.038422
 O         2.194849         0.629053        -4.430639
 C         2.705318         1.580115        -2.007493
 C         2.196897         1.204019        -0.678947
 O         2.404457        -0.130616        -0.325685
 H         0.668109        -0.014021         1.326020
 H        -0.499332         1.096209         0.321348
 H        -0.600104        -0.697689         0.294015
 H         1.263861        -1.234518        -2.129706
 H        -0.076836        -0.251807        -2.463021
 H         0.221430         1.147350        -4.233337
 H         1.318427         2.668978        -4.189978
 H         3.643344         1.014003        -2.157913
 H         2.788748         2.619300        -2.049732
 H         2.280338         2.037869         0.094205
