19
Iteration:   371
 C        -0.193904         0.398437        -0.051143
 C         1.253711         0.147461        -0.795620
 C         1.225107        -0.301033        -2.245335
 C         1.848144         0.914510        -2.981098
 C         1.008294         1.795387        -3.829424
 O         1.890885         0.741067        -4.391531
 C         2.987893         1.268042        -2.071791
 C         2.381166         1.103616        -0.639823
 O         2.379737        -0.276950        -0.075168
 H        -0.988829        -0.338208        -0.262486
 H        -0.128105         0.353398         1.175665
 H        -0.489257         1.368101        -0.251221
 H         1.901223        -1.157375        -2.335587
 H         0.207412        -0.507603        -2.683748
 H        -0.053611         1.485125        -3.771741
 H         1.259049         2.765201        -4.206085
 H         3.851175         0.634859        -2.337373
 H         3.277062         2.368161        -2.093325
 H         2.548527         2.006008        -0.008627
