19
Iteration:  2581charge 0 multiplicity 1
 C         0.103571        -0.187902         0.353135
 C         1.134013         0.235200        -0.661263
 C         0.821527        -0.049549        -2.171494
 C         1.720736         0.935670        -2.973458
 C         1.321453         1.463453        -4.351775
 O         2.225666         0.480435        -4.213543
 C         2.639047         1.708013        -2.026889
 C         2.180051         1.282989        -0.692505
 O         2.495448        -0.038038        -0.272962
 H        -0.870890         0.528850         0.066539
 H         0.043054        -1.266773         0.134663
 H         0.590107         0.115497         1.302298
 H         1.149647        -1.055254        -2.404333
 H        -0.242259         0.191068        -2.366326
 H         0.339928         1.206451        -4.814992
 H         1.829095         2.419032        -4.642025
 H         3.672479         1.610885        -2.553054
 H         2.415828         2.758854        -2.326534
 H         2.337451         2.081509         0.071342
