19
Iteration:  3525charge 0 multiplicity 1
 C         0.103067        -0.243632         0.408509
 C         1.160073         0.267388        -0.707513
 C         0.698856         0.059723        -2.098921
 C         1.597783         0.920753        -3.025823
 C         1.547146         1.612345        -4.297427
 O         2.251473         0.367739        -4.152762
 C         2.553028         1.704879        -2.110524
 C         2.189565         1.334966        -0.650063
 O         2.504510        -0.125064        -0.433172
 H         0.466331        -1.360628         0.400660
 H         0.235103         0.171650         1.402741
 H        -0.934983         0.052131         0.133743
 H         0.785436        -0.970751        -2.341900
 H        -0.325658         0.219239        -2.257863
 H         0.693689         1.401440        -4.937728
 H         2.063561         2.579514        -4.452047
 H         3.593134         1.668236        -2.399214
 H         2.349347         2.816285        -2.143772
 H         2.629623         1.983235         0.134957
