19
Iteration:   107charge 0 multiplicity 1
 C         0.241758        -0.311310         0.349563
 C         1.033943         0.245319        -0.811320
 C         0.379009         0.669817        -2.058118
 C         1.677407         1.130137        -2.893774
 C         1.641665         1.324921        -4.437011
 O         2.244954         0.170629        -3.770032
 C         2.578820         1.974559        -1.908485
 C         2.309156         1.053885        -0.662273
 O         2.488885        -0.318752        -0.915214
 H         0.004005        -1.357208         0.268311
 H         1.077106        -0.303991         1.269000
 H        -0.503413         0.339745         0.657302
 H        -0.167594        -0.173672        -2.586013
 H        -0.283880         1.495843        -1.737034
 H         0.748895         1.229133        -5.032242
 H         2.483070         1.888217        -4.834948
 H         3.615380         2.183812        -2.173455
 H         2.116857         3.003134        -1.744996
 H         2.670803         1.323903         0.311008
