19
Iteration:  2251charge 0 multiplicity 1
 C         0.136965        -0.207404         0.363051
 C         1.202687         0.262927        -0.732971
 C         0.633037         0.120820        -2.209301
 C         1.566628         0.947560        -2.967967
 C         1.439629         1.414140        -4.323503
 O         2.388892         0.386886        -4.078594
 C         2.505754         1.843245        -2.041351
 C         2.202244         1.265964        -0.670509
 O         2.567807        -0.147912        -0.412122
 H        -0.788455         0.355977         0.283460
 H        -0.029177        -1.176148         0.176365
 H         0.467783         0.079823         1.449218
 H         0.773687        -0.840354        -2.609915
 H        -0.409278         0.451634        -2.306162
 H         0.487405         1.126323        -4.764114
 H         1.835061         2.359545        -4.709912
 H         3.418852         1.715578        -2.553105
 H         2.152444         2.885064        -2.053774
 H         2.398473         1.770941         0.317096
