19
Iteration:  4077charge 0 multiplicity 1
 C         0.029945        -0.094900         0.341147
 C         1.131990         0.096403        -0.706653
 C         0.863469        -0.036979        -2.198442
 C         1.815665         0.937180        -2.971963
 C         1.242878         1.466239        -4.218917
 O         2.264316         0.471182        -4.314809
 C         2.654334         1.744353        -2.001660
 C         2.130428         1.301950        -0.619729
 O         2.566933        -0.058072        -0.367635
 H        -0.728887        -0.788034         0.041880
 H         0.466118        -0.635893         1.122882
 H        -0.293852         0.980055         0.630114
 H         0.940799        -1.024670        -2.535553
 H        -0.283236         0.166014        -2.408638
 H         0.262206         1.219389        -4.560212
 H         1.525416         2.405262        -4.660053
 H         3.751007         1.577695        -2.004234
 H         2.381215         2.858456        -2.170302
 H         2.111377         1.982491         0.357925
