19
Iteration:  3381charge 0 multiplicity 1
 C         0.413731        -0.258456         0.468895
 C         1.035156         0.233884        -0.842571
 C         0.509030         0.365075        -2.197457
 C         1.687354         1.045203        -2.908041
 C         1.598464         1.217849        -4.415978
 O         2.423492         0.281615        -3.795438
 C         2.381222         1.985649        -1.913317
 C         2.132262         1.246759        -0.664179
 O         2.398903        -0.172364        -0.841851
 H        -0.075599        -1.314175         0.403995
 H         1.266959        -0.559113         1.016007
 H         0.043617         0.547135         1.053991
 H         0.272701        -0.672460        -2.474534
 H        -0.552918         0.943583        -2.149116
 H         0.715886         0.839164        -4.962125
 H         2.153024         2.010799        -4.916210
 H         3.403871         2.140695        -2.298791
 H         1.875056         2.944733        -1.738122
 H         2.498630         1.658451         0.311035
