19
Iteration:   795
 C        -0.073870         0.181377         0.097013
 C         1.156242         0.194612        -0.778094
 C         1.208872        -0.405693        -2.189307
 C         1.745243         0.767011        -2.996062
 C         1.162892         1.769899        -3.935478
 O         1.984052         0.734240        -4.494534
 C         2.865459         1.336723        -2.065574
 C         2.230667         1.245029        -0.710974
 O         2.414197        -0.030742        -0.024502
 H        -0.046345         0.718052         0.961190
 H        -1.066101         0.423745        -0.454223
 H        -0.139043        -0.898147         0.491341
 H         1.928860        -1.218377        -2.334054
 H         0.172804        -0.641332        -2.492328
 H         0.072101         1.899276        -4.106488
 H         1.612499         2.822744        -3.852122
 H         3.660921         0.578390        -2.165410
 H         3.484245         2.221024        -2.387616
 H         2.239658         2.102102        -0.030166
