19
Iteration:  2201
 C         0.155250        -0.227448         0.320115
 C         1.105818         0.274460        -0.730747
 C         0.825893         0.064066        -2.235989
 C         1.769889         0.989057        -2.972450
 C         1.337201         1.474600        -4.248883
 O         2.223966         0.361450        -4.212433
 C         2.666160         1.728995        -2.020488
 C         2.148541         1.269870        -0.584919
 O         2.420051        -0.026206        -0.385109
 H        -1.012913        -0.316550         0.197356
 H         0.658257        -1.253608         0.656602
 H         0.357060         0.474582         1.023323
 H         1.144665        -1.025970        -2.472085
 H        -0.222452         0.319201        -2.529277
 H         0.384217         1.115903        -4.674954
 H         1.690777         2.506442        -4.488381
 H         3.756009         1.422817        -2.274983
 H         2.570480         2.844456        -2.044206
 H         2.109299         1.990607         0.230325
