19
Iteration:   239
 C        -0.102817         0.192539         0.059855
 C         1.173794         0.271896        -0.726742
 C         1.003684        -0.212412        -2.222057
 C         1.764358         0.882656        -2.925562
 C         1.147733         1.815493        -3.983299
 O         1.992887         0.701415        -4.362847
 C         2.975162         1.322480        -2.019376
 C         2.362967         1.167079        -0.657466
 O         2.386587        -0.274516        -0.217200
 H        -0.342950        -0.843758         0.277137
 H         0.068922         0.781018         1.127916
 H        -0.959074         0.392269        -0.443245
 H         1.456530        -1.222975        -2.336724
 H        -0.003779        -0.297834        -2.663128
 H         0.113874         1.835499        -4.319615
 H         1.675627         2.769358        -4.084952
 H         3.772219         0.589361        -2.190950
 H         3.443152         2.358164        -2.130643
 H         2.643067         1.857102         0.125546
