19
Iteration:  2743charge 0 multiplicity 1
 C         0.164063        -0.126468         0.456448
 C         1.078616         0.229856        -0.633552
 C         0.787654         0.004064        -2.154520
 C         1.721075         0.902803        -2.954560
 C         1.369230         1.570994        -4.272200
 O         2.262094         0.449246        -4.265879
 C         2.721503         1.726090        -2.049964
 C         2.132261         1.264460        -0.720008
 O         2.423313        -0.157837        -0.480552
 H         0.609482        -0.856143         1.166313
 H        -0.116216         0.673527         1.132572
 H        -0.873066        -0.532082         0.061892
 H         1.123339        -1.057529        -2.159047
 H        -0.351166         0.168155        -2.516429
 H         0.402354         1.520149        -4.785343
 H         1.764278         2.605823        -4.408346
 H         3.824074         1.597019        -2.231713
 H         2.617176         2.781971        -2.256687
 H         2.187462         1.894256         0.255982
