19
Iteration:  4684charge 0 multiplicity 1
 C         0.123518        -0.181962         0.292264
 C         1.196920         0.248162        -0.799419
 C         0.711387         0.102905        -2.215474
 C         1.739080         0.966128        -2.964911
 C         1.184284         1.417674        -4.281053
 O         2.413534         0.430995        -4.068239
 C         2.525569         1.861786        -1.984837
 C         2.279803         1.225353        -0.578602
 O         2.512239        -0.197826        -0.477361
 H         0.737993        -0.678253         0.973758
 H        -0.387574         0.626153         0.821320
 H        -0.667381        -0.837571        -0.224865
 H         0.569742        -0.892029        -2.519883
 H        -0.128994         0.739590        -2.176227
 H         0.248614         0.988072        -4.634159
 H         1.620200         2.280783        -4.725109
 H         3.590671         2.030864        -2.250176
 H         1.957041         2.822568        -2.036039
 H         2.380144         1.826182         0.269748
