19
Iteration:  3770charge 0 multiplicity 1
 C         0.274469        -0.124867         0.427742
 C         1.194803         0.298925        -0.757699
 C         0.509085         0.146206        -2.178856
 C         1.548864         1.020820        -2.942672
 C         1.564918         1.389712        -4.356725
 O         2.416313         0.312898        -3.913379
 C         2.330667         1.863332        -1.992757
 C         2.291554         1.214478        -0.610171
 O         2.506626        -0.246412        -0.717056
 H        -0.033825        -1.125316         0.278420
 H         0.844186        -0.039519         1.384506
 H        -0.717814         0.317639         0.279497
 H         0.414055        -0.794785        -2.560307
 H        -0.424980         0.704887        -2.374702
 H         0.794597         1.226612        -5.092444
 H         2.066729         2.351847        -4.470244
 H         3.247339         2.222914        -2.430110
 H         1.761233         2.786308        -1.796922
 H         2.564467         1.893022         0.186684
