19
Iteration:  2880
 C         0.370263        -0.165324         0.444111
 C         1.118102         0.164312        -0.780410
 C         0.422240         0.341383        -2.189379
 C         1.568719         1.095447        -2.955050
 C         1.684009         1.379460        -4.395665
 O         2.277977         0.238239        -3.901421
 C         2.428714         1.915705        -1.882644
 C         2.224279         1.152876        -0.649905
 O         2.527048        -0.215546        -0.763569
 H         0.469964         0.588763         1.235328
 H        -0.674833        -0.415782         0.196969
 H         0.786877        -1.140340         0.737695
 H        -0.141129        -0.423821        -2.760955
 H        -0.401248         0.990569        -1.805689
 H         0.881809         1.178396        -5.111446
 H         2.367106         2.162950        -4.756668
 H         3.469365         1.852980        -2.112824
 H         2.044601         2.911069        -2.044049
 H         2.370129         1.637247         0.348359
