19
Iteration:   346
 C        -0.082070         0.381175        -0.194073
 C         1.226346         0.227305        -0.875199
 C         1.191010        -0.382245        -2.224640
 C         1.843910         0.834449        -2.957458
 C         0.971314         1.714827        -3.711808
 O         1.835856         0.856987        -4.456115
 C         3.066772         1.267152        -2.005448
 C         2.385006         1.049115        -0.661314
 O         2.345290        -0.213525        -0.009793
 H        -0.700108        -0.457076        -0.084795
 H         0.041958         0.804559         0.838153
 H        -0.507226         1.323003        -0.750303
 H         1.762095        -1.338247        -2.236795
 H         0.191336        -0.430587        -2.618457
 H        -0.122642         1.398439        -3.685576
 H         1.134597         2.847954        -3.758131
 H         3.862340         0.542144        -2.097347
 H         3.501006         2.320171        -2.139672
 H         2.546722         1.916470        -0.067005
