19
Iteration:   774charge 0 multiplicity 1
 C        -0.025541         0.146877         0.140234
 C         1.145977         0.204096        -0.768785
 C         1.085642        -0.278499        -2.227695
 C         1.857422         0.826822        -3.012571
 C         1.095695         1.727910        -3.961305
 O         2.008987         0.690508        -4.393856
 C         2.969061         1.375410        -2.052676
 C         2.222687         1.194171        -0.692959
 O         2.387579        -0.103480        -0.107104
 H        -0.151252         1.087700         0.657910
 H        -0.977900         0.161033        -0.577269
 H        -0.000854        -0.654052         0.940493
 H         1.653060        -1.202920        -2.379438
 H         0.066963        -0.418491        -2.621480
 H         0.090043         1.346330        -4.274848
 H         1.256021         2.815469        -4.304672
 H         3.945704         0.971037        -1.923285
 H         3.230894         2.463834        -2.255502
 H         2.173026         2.001411         0.048908
