19
Iteration:   549charge 0 multiplicity 1
 C         0.362639        -0.236563         0.473065
 C         1.026141         0.302342        -0.738688
 C         0.381023         0.620208        -2.102453
 C         1.561602         1.257064        -2.901185
 C         1.715347         1.265399        -4.377244
 O         2.350407         0.194952        -3.686851
 C         2.529067         1.971692        -1.940829
 C         2.379721         1.057229        -0.737749
 O         2.308329        -0.416365        -1.023392
 H         0.007667        -1.281021         0.024110
 H         1.084900        -0.383761         1.264902
 H        -0.612284         0.145208         0.795084
 H         0.096711        -0.291432        -2.685776
 H        -0.490854         1.307427        -2.118627
 H         0.891326         1.003015        -4.976476
 H         2.177001         2.139119        -4.805217
 H         3.606407         1.946536        -2.350987
 H         2.157892         2.964892        -1.658717
 H         2.917079         1.454363         0.157470
