19
Iteration:   748charge 0 multiplicity 1
 C        -0.089664         0.166451         0.161087
 C         1.184682         0.269831        -0.765540
 C         0.963928        -0.204199        -2.252801
 C         1.813851         0.864584        -2.970213
 C         1.051428         1.630873        -3.998039
 O         2.177965         0.623665        -4.329352
 C         2.837270         1.510547        -2.033735
 C         2.315779         1.216754        -0.618508
 O         2.450767        -0.248651        -0.272085
 H        -0.281154         1.156763         0.562214
 H        -0.959896        -0.079273        -0.306494
 H         0.149546        -0.415133         1.117260
 H         1.336824        -1.245807        -2.391789
 H        -0.095662        -0.068622        -2.541971
 H         0.126156         1.248158        -4.379254
 H         1.235830         2.624497        -4.299816
 H         3.933235         1.162555        -2.103943
 H         3.078615         2.550865        -2.130250
 H         2.338027         1.927716         0.211885
