19
Iteration:  4428charge 0 multiplicity 1
 C         0.280881        -0.330204         0.277218
 C         1.183929         0.232857        -0.744872
 C         0.629692         0.325504        -2.106141
 C         1.718222         1.018616        -2.972935
 C         1.470697         1.358249        -4.347687
 O         2.327924         0.202969        -4.004860
 C         2.302713         1.957857        -2.026620
 C         2.177710         1.229787        -0.592175
 O         2.594941        -0.125230        -0.564622
 H         0.548078        -1.349142         0.625717
 H         0.241516         0.387433         1.199140
 H        -0.689620        -0.292254        -0.113510
 H         0.268268        -0.553523        -2.553164
 H        -0.181454         1.053290        -2.027653
 H         0.518463         1.162515        -4.734033
 H         1.898527         2.142679        -4.841437
 H         3.307303         2.373017        -2.236544
 H         1.677083         2.852348        -2.014773
 H         2.339330         1.778576         0.349439
