19
Iteration:   715charge 0 multiplicity 1
 C        -0.025628         0.154599         0.331900
 C         1.139324         0.233589        -0.726709
 C         0.887342        -0.115970        -2.219993
 C         1.631917         0.955551        -2.986668
 C         1.263298         1.673974        -4.187546
 O         2.259219         0.529759        -4.302584
 C         2.663310         1.644168        -2.010494
 C         2.320512         1.133766        -0.620589
 O         2.512443        -0.338236        -0.336314
 H        -0.340958         1.219096         0.406514
 H        -0.809125        -0.467043         0.161477
 H         0.326490        -0.147733         1.374176
 H         1.298219        -1.089692        -2.600917
 H        -0.196289        -0.092083        -2.473457
 H         0.376686         1.310755        -4.661077
 H         1.560437         2.633930        -4.472033
 H         3.704822         1.181726        -2.281480
 H         2.575778         2.731634        -2.036471
 H         2.446523         1.814611         0.228770
