19
Iteration:   845charge 0 multiplicity 1
 C        -0.097320         0.219444        -0.077474
 C         1.192788         0.212443        -0.823877
 C         1.151643        -0.283193        -2.237199
 C         1.921483         0.764474        -2.952933
 C         0.997048         1.564247        -3.772229
 O         1.948543         0.753297        -4.453150
 C         2.974273         1.308863        -2.028772
 C         2.256086         1.290745        -0.664076
 O         2.427432        -0.047393        -0.068792
 H         0.125658         0.143286         1.099369
 H        -0.542760         1.200148        -0.218853
 H        -0.821669        -0.594738        -0.269254
 H         1.691699        -1.249826        -2.154059
 H         0.175610        -0.465804        -2.712016
 H        -0.035869         1.241836        -3.861982
 H         1.107561         2.615867        -3.862863
 H         3.903577         0.737585        -2.192196
 H         3.279446         2.273897        -2.342583
 H         2.192402         2.209252        -0.070469
