19
Iteration:  2064
 C         0.156043        -0.114261         0.249495
 C         1.177260         0.243395        -0.748800
 C         0.823533        -0.054807        -2.239474
 C         1.723816         0.886198        -3.008934
 C         1.245291         1.494113        -4.211581
 O         2.293251         0.478557        -4.217470
 C         2.610991         1.620312        -2.062400
 C         2.121707         1.328360        -0.625374
 O         2.516701        -0.029970        -0.240252
 H        -0.485800         0.727083         0.476734
 H        -0.458291        -0.911089        -0.105607
 H         0.701755        -0.307366         1.333717
 H         0.962915        -1.016828        -2.689327
 H        -0.263083         0.065742        -2.367550
 H         0.300401         1.214038        -4.648494
 H         1.678113         2.443195        -4.454888
 H         3.642896         1.457006        -2.042492
 H         2.493189         2.670036        -2.279892
 H         2.018090         1.966123         0.252005
