19
Iteration:  1938charge 0 multiplicity 1
 C         0.201672        -0.060760         0.435793
 C         1.089973         0.211785        -0.670172
 C         0.619045         0.180694        -2.177660
 C         1.666013         1.010922        -3.012992
 C         1.373425         1.349706        -4.432511
 O         2.468180         0.444096        -3.968154
 C         2.425183         1.871872        -1.966907
 C         2.274469         1.119558        -0.643483
 O         2.508104        -0.259230        -0.614401
 H        -0.437242        -1.036842         0.261458
 H         0.855949        -0.265990         1.359142
 H        -0.443948         0.732307         0.481976
 H         0.633687        -0.888581        -2.486032
 H        -0.364866         0.642185        -2.366814
 H         0.489222         0.972317        -5.021167
 H         1.791315         2.317288        -4.747794
 H         3.363090         2.091547        -2.510217
 H         1.944912         2.858102        -1.880125
 H         2.606645         1.729642         0.230712
