19
Iteration:  2639charge 0 multiplicity 1
 C         0.074141         0.041349         0.369871
 C         1.097130         0.153942        -0.790565
 C         0.879457        -0.113246        -2.287201
 C         1.788720         0.916032        -2.961067
 C         1.166049         1.530401        -4.146343
 O         2.317181         0.444325        -4.185626
 C         2.629608         1.768861        -2.006771
 C         2.171443         1.230169        -0.650893
 O         2.529645        -0.131033        -0.401669
 H        -0.956937        -0.372749         0.044160
 H         0.696965        -0.481166         1.195965
 H        -0.065552         1.024088         0.677619
 H         1.143443        -1.183822        -2.585340
 H        -0.149237        -0.079209        -2.515659
 H         0.163375         1.214967        -4.497234
 H         1.459773         2.530398        -4.564781
 H         3.660490         1.457258        -2.276979
 H         2.438455         2.867768        -2.125190
 H         2.234859         1.998034         0.103845
