19
Iteration:  3043charge 0 multiplicity 1
 C         0.234440        -0.042657         0.405180
 C         1.088358         0.150349        -0.755302
 C         0.670288         0.200918        -2.160611
 C         1.659719         1.037532        -2.975984
 C         1.341819         1.362562        -4.401315
 O         2.407139         0.432008        -4.065660
 C         2.569313         1.856281        -1.911466
 C         2.179329         1.141739        -0.596731
 O         2.502253        -0.243217        -0.611210
 H         0.705963        -0.811321         1.024738
 H         0.020802         0.798465         1.070264
 H        -0.733481        -0.503800         0.173968
 H         0.537647        -0.822087        -2.576316
 H        -0.338323         0.660323        -2.115202
 H         0.480646         0.941079        -4.907580
 H         1.653894         2.361099        -4.743962
 H         3.539303         1.550516        -2.346252
 H         2.170228         2.926631        -1.896032
 H         2.349873         1.715366         0.280200
