19
Iteration:  4306charge 0 multiplicity 1
 C         0.288385        -0.161121         0.392836
 C         1.171837         0.222611        -0.754241
 C         0.551935         0.152396        -2.198889
 C         1.475485         1.119650        -2.932749
 C         1.578726         1.308880        -4.377107
 O         2.444519         0.342610        -3.753451
 C         2.282157         1.949878        -1.971267
 C         2.234573         1.165830        -0.721329
 O         2.565946        -0.232514        -0.773781
 H        -0.578823        -0.715907         0.083596
 H         0.883691        -0.682379         1.158065
 H        -0.056797         0.818218         0.882746
 H         0.622894        -0.815447        -2.708292
 H        -0.427348         0.584134        -2.180728
 H         0.754237         0.910619        -4.947377
 H         2.009341         2.263049        -4.627937
 H         3.228987         2.227680        -2.374413
 H         1.758658         2.933844        -1.829699
 H         2.495932         1.929110         0.116829
