19
Iteration:  1476
 C        -0.053784         0.112970         0.164422
 C         1.247110         0.180154        -0.718195
 C         1.079190        -0.254764        -2.220826
 C         1.737949         0.891077        -3.003895
 C         1.063995         1.653235        -4.077527
 O         2.130783         0.702259        -4.338241
 C         2.789686         1.410068        -2.111096
 C         2.261322         1.245970        -0.736543
 O         2.473053        -0.095159        -0.047665
 H        -0.015534         0.311537         1.235687
 H        -0.769072         0.829782        -0.170031
 H        -0.507524        -0.866927         0.040146
 H         1.444281        -1.285951        -2.315797
 H         0.020267        -0.320946        -2.463021
 H         0.077048         1.323519        -4.465773
 H         1.422188         2.658601        -4.191224
 H         3.569514         0.681902        -2.355835
 H         2.961063         2.447424        -2.392923
 H         2.480200         1.974226         0.087347
