19
Iteration:  3120
 C         0.173419        -0.117813         0.407935
 C         1.086521         0.176526        -0.742721
 C         0.767759         0.018750        -2.207576
 C         1.629262         0.931724        -2.993971
 C         1.427950         1.611524        -4.270210
 O         2.259023         0.389635        -4.186507
 C         2.599921         1.743067        -2.026050
 C         2.145421         1.224250        -0.681806
 O         2.541728        -0.121556        -0.419513
 H         0.419266        -1.008842         0.933412
 H         0.450334         0.561559         1.226439
 H        -0.961561         0.060968         0.303950
 H         0.758520        -1.064522        -2.386971
 H        -0.299852         0.179707        -2.313326
 H         0.504153         1.431269        -4.816896
 H         1.993293         2.522152        -4.497737
 H         3.666651         1.471611        -2.272857
 H         2.425295         2.921050        -2.087054
 H         2.118424         1.897127         0.158340
