19
Iteration:  2509
 C         0.158686        -0.051800         0.464527
 C         1.152238         0.249268        -0.703789
 C         0.757882         0.051387        -2.201434
 C         1.601116         0.916477        -2.997962
 C         1.371323         1.358741        -4.407060
 O         2.429679         0.522817        -4.090611
 C         2.407473         1.816479        -2.145654
 C         2.248347         1.206968        -0.602777
 O         2.484590        -0.211407        -0.418984
 H        -0.342772         0.860350         0.698953
 H        -0.680957        -0.763400         0.036622
 H         0.792708        -0.450863         1.245477
 H         1.097984        -1.053398        -2.376559
 H        -0.358908         0.171272        -2.300522
 H         0.643984         0.746990        -4.942086
 H         1.651064         2.401828        -4.668950
 H         3.447420         2.039567        -2.245558
 H         2.053213         2.867505        -1.928376
 H         2.555945         1.947128         0.148025
