19
Iteration:    11charge 0 multiplicity 1
 C         0.237275        -0.188059         0.366027
 C         1.126390         0.233239        -0.700794
 C         0.520673         0.476863        -2.148295
 C         1.641271         1.149399        -2.906108
 C         1.514129         1.386479        -4.391316
 O         2.278618         0.253424        -3.887214
 C         2.575453         1.840761        -1.901784
 C         2.343283         1.074739        -0.684340
 O         2.432480        -0.348875        -0.797407
 H        -0.010968        -1.231712         0.184938
 H         0.771145        -0.031427         1.435002
 H        -0.622164         0.434089         0.314346
 H         0.120705        -0.400368        -2.702232
 H        -0.253746         1.258033        -2.148787
 H         0.634110         1.423974        -4.947784
 H         2.238919         2.092567        -4.729328
 H         3.550081         2.113560        -2.188609
 H         2.117629         2.878535        -1.717479
 H         2.424014         1.612928         0.233840
