19
Iteration:   452charge 0 multiplicity 1
 C         0.131975         0.058426         0.400190
 C         1.082036         0.217086        -0.697762
 C         0.762877         0.064474        -2.234431
 C         1.779962         0.973282        -2.995462
 C         1.306634         1.701936        -4.243048
 O         2.186588         0.542206        -4.304861
 C         2.746320         1.496681        -1.994470
 C         2.289746         1.135402        -0.586385
 O         2.374493        -0.265626        -0.389119
 H        -0.047065        -1.051374         0.506309
 H         0.480365         0.475603         1.257608
 H        -0.920503         0.394174         0.067602
 H         0.974645        -0.996879        -2.486430
 H        -0.273107         0.206640        -2.468866
 H         0.302169         1.622039        -4.601729
 H         1.783291         2.616795        -4.604866
 H         3.636345         0.767280        -2.211846
 H         3.013651         2.511614        -2.077978
 H         2.720156         1.585107         0.321018
