19
Iteration:  2152charge 0 multiplicity 1
 C         0.045348         0.033901         0.336601
 C         1.162609         0.151572        -0.684584
 C         0.884217        -0.159372        -2.220849
 C         1.709427         0.932300        -3.001392
 C         1.217702         1.462874        -4.274782
 O         2.383514         0.580767        -4.279024
 C         2.481457         1.692449        -1.991435
 C         2.157454         1.172615        -0.617942
 O         2.590923        -0.106353        -0.341525
 H        -0.707276         0.748396        -0.061639
 H        -0.406974        -0.891081         0.483007
 H         0.449514         0.569245         1.366728
 H         1.102344        -1.149715        -2.502058
 H        -0.170340         0.107507        -2.271551
 H         0.286269         1.180688        -4.775836
 H         1.611506         2.431214        -4.483206
 H         3.519921         1.530907        -1.964926
 H         2.322261         2.760120        -2.143531
 H         2.360361         2.004512         0.115788
