19
Iteration:   823charge 0 multiplicity 1
 C        -0.123997         0.178356         0.000187
 C         1.218509         0.170944        -0.784168
 C         1.165961        -0.415167        -2.193323
 C         1.794598         0.737235        -3.017905
 C         1.036038         1.773428        -3.844479
 O         2.000767         0.752915        -4.372678
 C         2.979129         1.292679        -2.101774
 C         2.238696         1.248970        -0.786983
 O         2.419615         0.039480        -0.004738
 H        -0.031222         0.268799         1.220320
 H        -0.797935         0.987740        -0.293199
 H        -0.530930        -0.843689        -0.115517
 H         1.713340        -1.385597        -2.408150
 H         0.126162        -0.623250        -2.521422
 H        -0.035668         1.694983        -3.972176
 H         1.431823         2.742193        -3.914472
 H         3.914707         0.599990        -2.181750
 H         3.425335         2.198162        -2.425514
 H         2.192648         2.178609        -0.218924
