19
Iteration:  3141
 C         0.307192        -0.091371         0.478840
 C         1.106321         0.180660        -0.713056
 C         0.716432        -0.028089        -2.262063
 C         1.741210         0.986792        -3.003065
 C         1.367885         1.534551        -4.344581
 O         2.289342         0.444396        -4.245203
 C         2.624587         1.680838        -1.998423
 C         2.059283         1.292908        -0.616288
 O         2.432535        -0.122780        -0.402145
 H         0.192107        -1.195390         0.647773
 H         0.726436         0.165172         1.481770
 H        -0.726283         0.406561         0.404175
 H         0.765179        -0.991695        -2.771160
 H        -0.299552         0.286903        -2.400891
 H         0.388170         1.336695        -4.779396
 H         1.882524         2.447124        -4.655095
 H         3.690382         1.349501        -1.840048
 H         2.484946         2.830647        -2.096769
 H         2.118494         1.864938         0.248482
