19
Iteration:  4355charge 0 multiplicity 1
 C         0.390634        -0.336276         0.454034
 C         1.096685         0.241735        -0.793224
 C         0.463245         0.415504        -2.161312
 C         1.618038         1.032561        -2.934338
 C         1.618328         1.270272        -4.345822
 O         2.477636         0.215878        -3.779613
 C         2.231449         2.039373        -1.964750
 C         2.203296         1.204214        -0.646228
 O         2.474202        -0.153346        -0.858055
 H         0.125108        -1.421345         0.253111
 H         1.170882        -0.328977         1.233296
 H        -0.446060         0.225287         0.822600
 H         0.256618        -0.577090        -2.626734
 H        -0.391853         1.181043        -2.147209
 H         0.794646         0.863465        -5.008921
 H         2.180274         2.019010        -4.979674
 H         3.221735         2.392968        -2.391257
 H         1.637920         2.932933        -2.074224
 H         2.612440         1.618721         0.205870
