19
Iteration:  3273
 C         0.353972        -0.240387         0.543555
 C         1.038574         0.283091        -0.672849
 C         0.559142         0.155522        -2.120720
 C         1.638857         0.969819        -2.980304
 C         1.527979         1.395507        -4.382551
 O         2.449126         0.406218        -4.023253
 C         2.439417         1.827830        -2.075566
 C         2.145751         1.266026        -0.636022
 O         2.417018        -0.159785        -0.680489
 H         0.324136        -1.338331         0.639848
 H         0.772665         0.387517         1.280729
 H        -0.850768        -0.194769         0.397004
 H         0.571618        -0.846617        -2.448692
 H        -0.374633         0.669338        -2.341861
 H         0.761729         1.028907        -5.086091
 H         1.903647         2.390901        -4.574610
 H         3.470723         1.636580        -2.473926
 H         2.336029         2.955369        -2.057891
 H         2.629478         1.800048         0.200609
