19
Iteration:  2816
 C         0.133655        -0.040273         0.356563
 C         1.126319         0.257681        -0.758406
 C         0.659429         0.197135        -2.174295
 C         1.741210         1.013678        -2.901956
 C         1.304888         1.373053        -4.298622
 O         2.352040         0.398767        -4.073559
 C         2.539097         1.801895        -1.930067
 C         2.266010         1.128936        -0.609944
 O         2.540134        -0.245237        -0.669884
 H         0.490794         0.144670         1.304882
 H        -0.768749         0.583750         0.260260
 H        -0.197317        -1.151986         0.440215
 H         0.833214        -0.792389        -2.610634
 H        -0.299688         0.561598        -2.189590
 H         0.471865         0.928385        -4.847162
 H         1.559432         2.382289        -4.644162
 H         3.561591         1.960486        -2.161874
 H         2.159993         2.879758        -1.871997
 H         2.522924         1.576978         0.393261
