19
Iteration:  2467
 C         0.209967        -0.048286         0.457399
 C         1.158457         0.148017        -0.773934
 C         0.695469         0.119605        -2.185127
 C         1.676298         0.985459        -2.856827
 C         1.461283         1.325459        -4.373796
 O         2.425218         0.346471        -3.984068
 C         2.338915         1.879765        -1.959719
 C         2.126821         1.238591        -0.664404
 O         2.538276        -0.157694        -0.704303
 H        -0.455066         0.728437         0.427302
 H        -0.177527        -1.132900         0.599315
 H         0.831882         0.254446         1.474768
 H         0.729090        -0.855538        -2.699280
 H        -0.284333         0.664296        -2.414025
 H         0.534930         0.995665        -4.820244
 H         1.829861         2.309225        -4.712535
 H         3.335922         2.070186        -2.315237
 H         1.715547         2.796660        -2.170163
 H         2.373748         1.678488         0.301970
