19
Iteration:  1213charge 0 multiplicity 1
 C         0.236418        -0.101724         0.453226
 C         1.191820         0.275502        -0.700833
 C         0.572407         0.145207        -2.207744
 C         1.679492         0.964396        -2.951842
 C         1.552978         1.456862        -4.339846
 O         2.277741         0.304968        -3.967656
 C         2.420626         1.883735        -2.003568
 C         2.263731         1.190304        -0.624571
 O         2.505980        -0.225593        -0.695552
 H         0.628494         0.053809         1.513794
 H        -0.610364         0.626217         0.338719
 H        -0.191606        -1.086796         0.235810
 H         0.544958        -0.866503        -2.644889
 H        -0.481691         0.487132        -2.228264
 H         0.638269         1.191496        -4.865179
 H         2.089327         2.332698        -4.765448
 H         3.407136         1.981263        -2.405721
 H         1.902743         2.834554        -2.015509
 H         2.378296         1.717528         0.332795
