19
Iteration:  1385
 C         0.068773         0.093448         0.364090
 C         1.130065         0.136909        -0.696448
 C         0.858026        -0.177834        -2.165543
 C         1.686300         0.856258        -3.074114
 C         1.129527         1.614350        -4.240400
 O         2.322549         0.745544        -4.349396
 C         2.762647         1.439045        -2.120270
 C         2.193475         1.201610        -0.628271
 O         2.483281        -0.115476        -0.145841
 H         0.303279         0.626059         1.164539
 H        -0.744222         0.585505        -0.176999
 H        -0.225304        -0.996125         0.729876
 H         1.276862        -1.164853        -2.447374
 H        -0.203559        -0.024225        -2.475572
 H         0.268692         1.248962        -4.752578
 H         1.396036         2.661690        -4.378250
 H         3.598107         0.730261        -2.320067
 H         2.956581         2.559110        -2.304036
 H         2.384584         2.055016         0.004047
