19
Iteration:  3011charge 0 multiplicity 1
 C         0.248479        -0.148517         0.485757
 C         1.119754         0.216561        -0.687272
 C         0.496155         0.218380        -2.146761
 C         1.598993         0.967651        -2.991395
 C         1.614522         1.540868        -4.353443
 O         2.369112         0.261127        -3.983765
 C         2.418561         1.894875        -2.060933
 C         2.249011         1.157898        -0.646744
 O         2.473562        -0.200686        -0.702829
 H         0.928611        -0.592851         1.169118
 H        -0.245375         0.689278         0.955948
 H        -0.379529        -1.056405         0.299180
 H         0.658873        -0.903230        -2.275919
 H        -0.580473         0.589085        -2.155147
 H         0.782708         1.417628        -5.030466
 H         2.237127         2.435228        -4.553923
 H         3.347370         2.094042        -2.616831
 H         1.946451         2.904156        -1.959482
 H         2.723539         1.596609         0.340041
