19
Iteration:  2245
 C         0.122347        -0.219323         0.372270
 C         1.163648         0.228052        -0.772252
 C         0.696526         0.144920        -2.149288
 C         1.579836         0.950249        -2.935939
 C         1.393317         1.429360        -4.364564
 O         2.378545         0.380671        -4.121163
 C         2.527872         1.786615        -2.041209
 C         2.213410         1.284865        -0.626204
 O         2.586277        -0.106992        -0.405748
 H        -0.948718         0.220897         0.073810
 H        -0.141910        -1.425994         0.387647
 H         0.332567         0.091631         1.334703
 H         0.757683        -0.888871        -2.662967
 H        -0.298335         0.654083        -2.109878
 H         0.423638         1.265250        -4.898475
 H         1.884286         2.373241        -4.660842
 H         3.606097         1.666534        -2.438798
 H         2.207647         2.826725        -2.258428
 H         2.235591         1.900590         0.258025
