19
Iteration:   300charge 0 multiplicity 1
 C        -0.106864         0.372001        -0.079547
 C         1.106118         0.179461        -0.880658
 C         1.142322        -0.507479        -2.236054
 C         1.856203         0.731571        -3.012273
 C         1.089930         1.841343        -3.583804
 O         1.944520         0.952885        -4.397537
 C         2.987517         1.107119        -2.088060
 C         2.281590         1.094525        -0.739263
 O         2.421429        -0.062374        -0.088270
 H        -0.010614        -0.427596         0.658770
 H        -0.027793         1.192298         0.517155
 H        -1.154570         0.540460        -0.666182
 H         1.863373        -1.347286        -2.241477
 H         0.183326        -0.780404        -2.633744
 H        -0.001520         1.708262        -3.680586
 H         1.511881         2.896634        -3.612149
 H         3.804365         0.340994        -2.168170
 H         3.307431         2.106060        -2.393844
 H         2.225840         2.031841        -0.186351
