19
Iteration:  1835charge 0 multiplicity 1
 C         0.251825        -0.394565         0.362705
 C         1.097524         0.356627        -0.711914
 C         0.479599         0.477093        -2.109303
 C         1.561318         1.176725        -2.932352
 C         1.563128         1.193006        -4.402210
 O         2.351092         0.185209        -3.732111
 C         2.475781         2.009229        -1.957994
 C         2.319741         1.199810        -0.674199
 O         2.546060        -0.178754        -0.871036
 H         0.821937        -1.076062         0.934767
 H        -0.407993         0.276288         0.849368
 H        -0.550816        -0.907280        -0.350837
 H         0.311979        -0.458309        -2.707410
 H        -0.565175         0.907618        -1.924739
 H         0.675289         0.737875        -4.783877
 H         1.999445         1.946557        -5.085108
 H         3.576747         1.913704        -2.172134
 H         2.043436         3.063329        -1.926380
 H         2.608689         1.598546         0.305947
