19
Iteration:  1983
 C         0.131577        -0.020266         0.354658
 C         1.210740         0.202525        -0.781451
 C         0.749090         0.043062        -2.228834
 C         1.708201         0.951468        -2.976974
 C         1.298940         1.430206        -4.247508
 O         2.341673         0.447448        -4.062961
 C         2.487068         1.830790        -1.989065
 C         2.236838         1.199764        -0.670741
 O         2.521248        -0.216877        -0.487334
 H        -0.823002        -0.265316        -0.172652
 H         0.421320        -0.897034         1.138060
 H        -0.050932         0.864318         0.853832
 H         0.956164        -1.018260        -2.562215
 H        -0.280991         0.385690        -2.282444
 H         0.464320         0.902491        -4.760408
 H         1.588580         2.420292        -4.703079
 H         3.582722         2.003602        -2.091404
 H         1.978338         2.812177        -2.011771
 H         2.344096         1.769412         0.258896
