19
Iteration:  4124charge 0 multiplicity 1
 C         0.006533        -0.014172         0.378318
 C         1.130196         0.211844        -0.654514
 C         0.922252        -0.125816        -2.200678
 C         1.625634         0.972736        -2.996135
 C         1.292169         1.509920        -4.316293
 O         2.300264         0.538385        -4.200447
 C         2.556677         1.740802        -2.024459
 C         2.262361         1.216823        -0.646471
 O         2.556610        -0.160479        -0.414531
 H        -0.385448        -1.033035         0.188718
 H         0.252672        -0.025386         1.489694
 H        -0.718610         0.729501         0.081244
 H         1.287183        -1.094311        -2.388930
 H        -0.166463        -0.367082        -2.249488
 H         0.305489         1.160667        -4.732302
 H         1.524765         2.559714        -4.621073
 H         3.694768         1.514082        -2.193126
 H         2.472590         2.847658        -2.059835
 H         2.326961         1.841288         0.229148
