19
Iteration:  2887
 C         0.368739        -0.230902         0.420300
 C         1.129625         0.159029        -0.820597
 C         0.489992         0.416337        -2.142023
 C         1.525640         1.070177        -2.906300
 C         1.677992         1.375463        -4.409713
 O         2.263306         0.193871        -3.864862
 C         2.434835         1.886647        -1.925882
 C         2.194142         1.179250        -0.618522
 O         2.516055        -0.197091        -0.802313
 H         0.429896         0.667353         1.169414
 H        -0.708912        -0.363513         0.180922
 H         0.720170        -1.135436         0.824506
 H         0.159274        -0.471478        -2.677118
 H        -0.315917         1.232633        -2.061645
 H         0.866431         1.244906        -5.142595
 H         2.326456         2.210961        -4.702575
 H         3.533235         2.179179        -2.082138
 H         2.099206         2.936576        -1.931244
 H         2.414893         1.584151         0.309939
