19
Iteration:   352
 C        -0.068894         0.428319        -0.184031
 C         1.198333         0.250664        -0.823222
 C         1.212486        -0.306109        -2.286489
 C         1.860269         0.820096        -2.967455
 C         0.923996         1.721918        -3.735104
 O         1.832540         0.816426        -4.442019
 C         3.091325         1.289670        -2.015722
 C         2.378978         1.017567        -0.645915
 O         2.372330        -0.237676         0.012329
 H        -0.695910        -0.540104        -0.248108
 H         0.076955         0.607271         0.911047
 H        -0.608671         1.240114        -0.653731
 H         1.800350        -1.216129        -2.410274
 H         0.191667        -0.512035        -2.686017
 H        -0.101855         1.485780        -3.880276
 H         1.195136         2.751480        -3.721362
 H         3.865460         0.462409        -2.009230
 H         3.378074         2.270124        -2.260069
 H         2.301353         1.851919         0.116783
