19
Iteration:  2318charge 0 multiplicity 1
 C         0.300509        -0.083510         0.451919
 C         1.142131         0.137461        -0.756387
 C         0.540774         0.226719        -2.170167
 C         1.630361         0.984199        -2.938063
 C         1.550285         1.271927        -4.434382
 O         2.506956         0.396648        -3.815857
 C         2.258036         1.968352        -2.025244
 C         2.186214         1.184784        -0.624981
 O         2.512809        -0.255579        -0.778317
 H        -0.221113         0.808041         0.915026
 H        -0.394329        -0.810516         0.288365
 H         1.030888        -0.490910         1.160532
 H         0.265613        -0.747657        -2.472321
 H        -0.279469         0.969414        -2.233562
 H         0.842985         0.738806        -5.041492
 H         1.780650         2.266638        -4.825493
 H         3.248728         2.294652        -2.357355
 H         1.665153         2.869577        -1.838575
 H         2.303614         1.875821         0.260437
