19
Iteration:  3127charge 0 multiplicity 1
 C         0.202248        -0.109013         0.466143
 C         1.093919         0.147195        -0.785112
 C         0.712512         0.004834        -2.212178
 C         1.704010         0.906927        -3.011423
 C         1.426354         1.612419        -4.303551
 O         2.247404         0.406358        -4.192370
 C         2.597192         1.777249        -1.977506
 C         2.097710         1.269522        -0.674700
 O         2.521849        -0.150671        -0.390226
 H         0.322438        -1.285223         0.767496
 H         0.688928         0.693803         1.162774
 H        -0.797285         0.111998         0.364225
 H         0.854245        -1.053151        -2.389108
 H        -0.334265         0.245509        -2.411581
 H         0.481423         1.395489        -4.787685
 H         1.911528         2.551201        -4.605925
 H         3.620314         1.488254        -2.344838
 H         2.721529         2.800482        -2.206577
 H         2.061643         1.968962         0.135193
