19
Iteration:  3015
 C         0.251079        -0.147414         0.497544
 C         1.093739         0.227828        -0.688695
 C         0.495148         0.191459        -2.160529
 C         1.608842         0.984457        -3.003613
 C         1.576414         1.537196        -4.363142
 O         2.395596         0.299112        -3.982218
 C         2.444805         1.892493        -2.051868
 C         2.242270         1.174221        -0.637928
 O         2.493480        -0.231470        -0.687696
 H         0.771667        -0.718837         1.288126
 H        -0.134894         0.778957         0.919267
 H        -0.553185        -1.013525         0.360384
 H         0.643324        -0.908719        -2.384143
 H        -0.545066         0.573054        -2.126222
 H         0.665633         1.425550        -4.997178
 H         2.202127         2.403473        -4.614164
 H         3.364435         1.818092        -2.607313
 H         1.870759         2.779221        -2.126163
 H         2.793269         1.772726         0.283816
