19
Iteration:  4019charge 0 multiplicity 1
 C         0.085341        -0.137279         0.428628
 C         1.144298         0.249269        -0.675206
 C         0.838094        -0.015890        -2.254084
 C         1.710008         0.980767        -2.982953
 C         1.304951         1.472552        -4.247077
 O         2.322382         0.415006        -4.246093
 C         2.541565         1.791355        -2.035316
 C         2.198907         1.276369        -0.601876
 O         2.502152        -0.141777        -0.464720
 H        -0.508222        -1.044609         0.166354
 H         0.668514        -0.189122         1.403007
 H        -0.624300         0.657688         0.618117
 H         1.058949        -1.155575        -2.344359
 H        -0.170585         0.233782        -2.430064
 H         0.366811         1.178505        -4.711729
 H         1.804838         2.389943        -4.506591
 H         3.600307         1.628600        -2.108400
 H         2.419971         2.880911        -2.137272
 H         2.165210         1.963277         0.215792
