19
Iteration:  1450charge 0 multiplicity 1
 C        -0.018695         0.151933         0.065758
 C         1.198395         0.225566        -0.786325
 C         1.074875        -0.212788        -2.230295
 C         1.783657         0.930707        -2.920096
 C         1.110973         1.548061        -4.057668
 O         1.959950         0.548002        -4.410670
 C         2.862712         1.629851        -1.945898
 C         2.280209         1.188086        -0.615470
 O         2.511704        -0.150222        -0.150743
 H        -0.018839         0.298607         1.088566
 H        -0.643964         1.024259        -0.270298
 H        -0.671881        -0.832257        -0.192232
 H         1.580398        -1.209801        -2.234494
 H         0.032368        -0.464164        -2.543330
 H         0.071141         1.396018        -4.284934
 H         1.515931         2.556184        -4.303808
 H         3.864566         1.153547        -2.043180
 H         2.734737         2.719718        -2.229149
 H         2.330216         1.779904         0.261289
