19
Iteration:   308charge 0 multiplicity 1
 C        -0.136697         0.394315        -0.085994
 C         1.069981         0.227793        -0.925591
 C         1.186823        -0.492444        -2.256777
 C         1.856590         0.748677        -2.972044
 C         1.072105         1.800802        -3.550025
 O         1.949205         0.936415        -4.373799
 C         2.948121         1.154524        -2.127747
 C         2.319568         1.130967        -0.830634
 O         2.471961        -0.136725        -0.042603
 H        -0.497086        -0.470288         0.611237
 H         0.066644         1.280388         0.560176
 H        -1.001658         0.458044        -0.750817
 H         1.774884        -1.380458        -2.095982
 H         0.189313        -0.871503        -2.610091
 H         0.044325         1.725070        -3.785679
 H         1.438064         2.754123        -3.305574
 H         3.673088         0.285976        -2.309713
 H         3.342791         2.132086        -2.135803
 H         2.275377         2.048596        -0.147031
