19
Iteration:  3856
 C         0.272538        -0.378612         0.320073
 C         1.145717         0.205415        -0.706913
 C         0.495915         0.391838        -2.123002
 C         1.631684         1.059118        -2.948487
 C         1.540220         1.259066        -4.414321
 O         2.377637         0.206595        -3.750225
 C         2.324954         2.071639        -2.034153
 C         2.310126         1.282259        -0.681420
 O         2.520564        -0.156128        -0.736879
 H        -0.424157        -1.085203        -0.186923
 H         0.881741        -0.928635         1.176768
 H        -0.317906         0.353868         0.868674
 H         0.292700        -0.564664        -2.580817
 H        -0.579455         0.908350        -2.149666
 H         0.768470         0.922055        -5.095311
 H         2.186550         2.056054        -4.780476
 H         3.336792         2.209224        -2.438965
 H         2.015851         3.143570        -1.762229
 H         2.667100         1.804774         0.188338
