19
Iteration:  1163
 C         0.281876        -0.425855         0.299644
 C         1.122884         0.308180        -0.756241
 C         0.501913         0.581393        -2.109930
 C         1.682124         1.063419        -2.966675
 C         1.449208         1.191316        -4.402311
 O         2.372237         0.223788        -3.764685
 C         2.514003         1.912873        -1.966899
 C         2.211272         1.241936        -0.629922
 O         2.477321        -0.137883        -0.790802
 H         0.788296        -0.134038         1.257570
 H        -0.728299        -0.115056         0.405113
 H         0.310089        -1.474601         0.109092
 H        -0.081976        -0.305317        -2.426322
 H        -0.274203         1.338755        -1.919268
 H         0.509092         0.758858        -4.767082
 H         2.020050         1.854459        -5.087774
 H         3.642271         1.891781        -2.205434
 H         2.181870         3.005305        -1.957827
 H         2.730669         1.644793         0.250825
