19
Iteration:  2785charge 0 multiplicity 1
 C         0.139829        -0.050439         0.329719
 C         1.179151         0.144566        -0.763466
 C         0.671878         0.122056        -2.125484
 C         1.688120         1.033704        -2.992129
 C         1.314772         1.493856        -4.349266
 O         2.287427         0.415278        -4.133997
 C         2.572527         1.783956        -2.029784
 C         2.210706         1.194194        -0.628605
 O         2.604439        -0.258236        -0.383736
 H         0.577245        -0.379242         1.197589
 H        -0.379567         0.871429         0.523730
 H        -0.730769        -0.690953        -0.205533
 H         0.792622        -0.845968        -2.659717
 H        -0.458744         0.282256        -2.129175
 H         0.485495         1.107403        -4.941430
 H         1.700491         2.487933        -4.668230
 H         3.636465         1.675692        -2.206001
 H         2.328069         2.855317        -1.912578
 H         2.311697         1.775608         0.378901
