19
Iteration:  3459charge 0 multiplicity 1
 C         0.162803        -0.156512         0.379786
 C         1.132410         0.242780        -0.750557
 C         0.648235         0.230549        -2.170207
 C         1.660431         1.119184        -2.915427
 C         1.383534         1.299342        -4.365418
 O         2.431938         0.321685        -3.956952
 C         2.471129         1.923924        -1.947957
 C         2.281152         1.159697        -0.650001
 O         2.504286        -0.222391        -0.693990
 H        -0.206915        -1.234406         0.231368
 H         0.682100        -0.027398         1.294976
 H        -0.713493         0.550466         0.427590
 H         0.415607        -0.747729        -2.566134
 H        -0.458296         0.592442        -2.047918
 H         0.466199         0.858374        -4.747501
 H         1.672298         2.192559        -4.950815
 H         3.480862         2.188224        -2.244417
 H         2.014616         2.918769        -1.888492
 H         2.650236         1.608112         0.324228
