19
Iteration:   241
 C        -0.101626         0.178922         0.066167
 C         1.171805         0.287695        -0.733912
 C         1.000330        -0.221504        -2.237727
 C         1.774646         0.879549        -2.936833
 C         1.140334         1.816906        -3.984174
 O         1.973526         0.714824        -4.362859
 C         2.996308         1.294892        -1.997445
 C         2.372086         1.162174        -0.650282
 O         2.385075        -0.258837        -0.206383
 H        -0.358326        -0.889260         0.333976
 H         0.021627         0.831453         1.041643
 H        -0.969106         0.426723        -0.504207
 H         1.480718        -1.192336        -2.348905
 H        -0.011787        -0.347828        -2.709505
 H         0.124688         1.829530        -4.323631
 H         1.643265         2.723587        -4.051666
 H         3.856029         0.616323        -2.243004
 H         3.428747         2.303442        -2.126258
 H         2.637457         1.944567         0.116142
