19
Iteration:  2223charge 0 multiplicity 1
 C         0.149774        -0.212760         0.354896
 C         1.191436         0.215059        -0.656967
 C         0.713505         0.096318        -2.170801
 C         1.754547         0.897519        -2.999542
 C         1.361955         1.499845        -4.382656
 O         2.262002         0.361952        -4.221071
 C         2.629162         1.796962        -1.918427
 C         2.047690         1.338142        -0.645884
 O         2.542925        -0.064164        -0.402229
 H        -0.917302        -0.132413        -0.179922
 H         0.303309        -1.413238         0.469342
 H         0.116654         0.270797         1.256042
 H         0.709810        -0.996149        -2.548094
 H        -0.215605         0.698000        -2.296788
 H         0.334737         1.144530        -4.611712
 H         1.723989         2.386608        -4.941282
 H         3.673978         1.337822        -2.042062
 H         2.679009         2.907873        -1.972489
 H         2.387363         1.783602         0.256310
