19
Iteration:  3616
 C         0.026310         0.008657         0.332892
 C         1.104269         0.242112        -0.607520
 C         0.851101        -0.089493        -2.114915
 C         1.638992         0.925674        -2.993333
 C         1.284546         1.450159        -4.366240
 O         2.408748         0.605492        -4.196365
 C         2.542879         1.759547        -2.051440
 C         2.219642         1.195661        -0.618321
 O         2.563931        -0.246583        -0.443761
 H        -0.662121        -0.808690         0.165189
 H         0.232321        -0.123374         1.502377
 H        -0.465921         1.129489         0.449653
 H         1.102124        -1.136866        -2.188003
 H        -0.196174         0.078612        -2.484189
 H         0.412406         0.942324        -4.803146
 H         1.417898         2.466630        -4.738235
 H         3.544186         1.636406        -2.459313
 H         2.243349         2.798625        -1.998326
 H         2.653910         1.687645         0.204424
