19
Iteration:  1399
 C        -0.003323         0.154615         0.245949
 C         1.195875         0.206331        -0.738852
 C         0.940978        -0.274828        -2.233004
 C         1.682464         0.868463        -2.957797
 C         1.169598         1.567482        -4.132884
 O         2.239526         0.701030        -4.346468
 C         2.728999         1.490844        -2.030610
 C         2.333882         1.236332        -0.654583
 O         2.432026        -0.129658        -0.248412
 H         0.399271         0.633582         1.238956
 H        -0.957325         0.647025         0.088850
 H        -0.213223        -0.909342         0.494976
 H         1.130439        -1.330356        -2.464210
 H        -0.151348        -0.242545        -2.335144
 H         0.224777         1.233082        -4.548028
 H         1.308012         2.651455        -4.254264
 H         3.707788         1.029105        -2.176289
 H         2.874352         2.548150        -2.332419
 H         2.202270         1.934680         0.207696
