19
Iteration:  3018charge 0 multiplicity 1
 C         0.245004        -0.160890         0.504546
 C         1.079313         0.237158        -0.694787
 C         0.509913         0.170910        -2.162719
 C         1.610564         0.997357        -3.003355
 C         1.551684         1.525418        -4.370224
 O         2.404765         0.327494        -3.984731
 C         2.447054         1.868515        -2.039622
 C         2.254657         1.200116        -0.631556
 O         2.503987        -0.251834        -0.679676
 H         0.763966        -0.752827         1.383847
 H        -0.127405         0.835470         0.923296
 H        -0.597761        -0.819630         0.349632
 H         0.559708        -0.838283        -2.489871
 H        -0.486160         0.543854        -2.148970
 H         0.643771         1.395589        -4.967043
 H         2.174106         2.372217        -4.638963
 H         3.479385         1.706049        -2.550552
 H         1.831350         2.830574        -2.190940
 H         2.692908         1.767755         0.113301
