19
Iteration:  4814
 C         0.283867        -0.335428         0.314903
 C         1.103350         0.253273        -0.776362
 C         0.576682         0.409151        -2.181200
 C         1.617247         1.134240        -2.873688
 C         1.426788         1.177895        -4.354191
 O         2.401040         0.371141        -3.765685
 C         2.487428         1.986607        -1.986759
 C         2.325624         1.170362        -0.638028
 O         2.453170        -0.243280        -0.791902
 H         0.300542         0.269563         1.164989
 H        -0.743131        -0.419783        -0.069542
 H         0.779701        -1.260022         0.709077
 H         0.162897        -0.456861        -2.697989
 H        -0.429853         0.980945        -2.156694
 H         0.573551         0.736798        -4.943579
 H         1.793899         2.066658        -4.907105
 H         3.467078         2.293929        -2.497922
 H         1.977583         2.896837        -1.685228
 H         2.454097         1.610344         0.335231
