19
Iteration:  3147
 C         0.251956        -0.108574         0.477266
 C         1.070087         0.189445        -0.696983
 C         0.806532         0.040745        -2.270376
 C         1.656392         0.978986        -3.007783
 C         1.354791         1.510437        -4.325786
 O         2.330235         0.448503        -4.268618
 C         2.633399         1.649953        -1.950782
 C         2.080169         1.258077        -0.632207
 O         2.442842        -0.089462        -0.427492
 H         0.048454        -1.230819         0.525873
 H         0.838578         0.088458         1.423755
 H        -0.629064         0.472631         0.554845
 H         0.673018        -1.066760        -2.521413
 H        -0.314712         0.279067        -2.330900
 H         0.373690         1.210137        -4.736241
 H         1.775034         2.458433        -4.705837
 H         3.710240         1.509153        -2.073183
 H         2.562647         2.686528        -2.053093
 H         2.200999         1.943132         0.309594
