19
Iteration:  2931
 C         0.264418        -0.412380         0.275872
 C         1.121151         0.363905        -0.684902
 C         0.493919         0.556684        -2.099413
 C         1.616033         1.135876        -2.916819
 C         1.461317         1.168617        -4.423161
 O         2.404894         0.240354        -3.764693
 C         2.490829         1.953148        -1.926834
 C         2.380280         1.192552        -0.634773
 O         2.420304        -0.224620        -0.860785
 H         0.242531         0.307724         1.211871
 H        -0.780841        -0.566894        -0.103365
 H         0.651256        -1.345991         0.431439
 H         0.165986        -0.430492        -2.368119
 H        -0.473184         1.083664        -1.895727
 H         0.687012         0.693156        -5.042601
 H         1.913530         2.045641        -4.885487
 H         3.527600         2.084063        -2.480146
 H         2.092634         3.074833        -1.788755
 H         2.687436         1.618531         0.233389
