19
Iteration:  4828charge 0 multiplicity 1
 C         0.327053        -0.303981         0.323961
 C         1.141958         0.314218        -0.835216
 C         0.513497         0.419320        -2.189883
 C         1.634633         1.133150        -2.934926
 C         1.451615         1.313188        -4.351315
 O         2.398466         0.231406        -3.784543
 C         2.378557         1.953596        -1.878515
 C         2.273034         1.158782        -0.660245
 O         2.485719        -0.228260        -0.778174
 H         0.387334         0.299714         1.242131
 H        -0.790085        -0.628764         0.150267
 H         0.815652        -1.319815         0.414858
 H         0.600503        -0.597733        -2.607787
 H        -0.436708         0.971963        -2.206521
 H         0.520728         0.839822        -4.673161
 H         1.897338         2.089783        -4.979017
 H         3.451775         2.012462        -2.127117
 H         1.926374         3.062411        -1.885360
 H         2.686892         1.678255         0.371551
