19
Iteration:  2132
 C         0.110780         0.108918         0.292357
 C         1.203289         0.086069        -0.841375
 C         0.919112        -0.144042        -2.212219
 C         1.682230         0.872901        -3.000829
 C         1.191039         1.424263        -4.240184
 O         2.331143         0.572330        -4.213828
 C         2.591043         1.857601        -1.947114
 C         2.181409         1.210664        -0.636421
 O         2.498388        -0.194510        -0.274475
 H        -0.578076         1.092100         0.177761
 H        -0.519350        -0.674046         0.070822
 H         0.590771         0.141563         1.359066
 H         1.217916        -1.123724        -2.523565
 H        -0.193966        -0.147788        -2.454367
 H         0.374214         0.872861        -4.667924
 H         1.322149         2.448438        -4.503992
 H         3.629331         1.944083        -2.262931
 H         2.085297         2.778603        -2.195917
 H         2.109683         1.943477         0.230429
