19
Iteration:  2918
 C         0.249076        -0.359110         0.344454
 C         1.095665         0.327335        -0.743150
 C         0.475584         0.459070        -2.071874
 C         1.590013         1.095568        -2.904516
 C         1.580026         1.224778        -4.369980
 O         2.318458         0.203596        -3.801643
 C         2.502986         2.018888        -1.976462
 C         2.353864         1.189799        -0.660572
 O         2.455062        -0.188012        -0.868754
 H         0.017628        -0.016046         1.397366
 H        -0.727288        -0.539278        -0.123420
 H         0.794202        -1.351643         0.571159
 H         0.193627        -0.455351        -2.569610
 H        -0.215385         1.273034        -2.218606
 H         0.617520         0.917613        -4.833757
 H         2.135348         2.013496        -4.903013
 H         3.635729         2.198565        -2.243771
 H         1.960485         3.092543        -1.638980
 H         2.892822         1.458408         0.255324
