19
Iteration:  1495charge 0 multiplicity 1
 C        -0.023050         0.119268         0.247081
 C         1.086320         0.192042        -0.742790
 C         0.965314        -0.314451        -2.147424
 C         1.717488         0.801045        -2.989167
 C         1.109029         1.657219        -4.043871
 O         2.191255         0.789078        -4.430790
 C         2.912746         1.354099        -2.104239
 C         2.259837         1.258461        -0.687157
 O         2.463409        -0.032045        -0.168558
 H         0.347077         0.528977         1.101784
 H        -0.961642         0.663446        -0.022568
 H        -0.302491        -1.089051         0.450725
 H         1.583635        -1.232455        -2.384123
 H         0.016144        -0.688905        -2.562025
 H         0.159696         1.267091        -4.372609
 H         1.253034         2.747675        -4.060028
 H         3.786179         0.640800        -2.211056
 H         3.175603         2.473400        -2.298371
 H         1.983560         2.100223        -0.058352
