19
Iteration:  4244charge 0 multiplicity 1
 C         0.202295        -0.245512         0.342160
 C         1.148224         0.148159        -0.780658
 C         0.658154         0.149211        -2.196080
 C         1.662573         1.003456        -2.989308
 C         1.395334         1.407338        -4.339469
 O         2.366600         0.370156        -4.160404
 C         2.500290         1.869863        -1.988430
 C         2.162022         1.301507        -0.635875
 O         2.568521        -0.159864        -0.371777
 H        -0.169330        -1.282585         0.442517
 H         0.747954         0.000180         1.338904
 H        -0.601459         0.415506         0.243195
 H         0.282281        -0.736479        -2.633819
 H        -0.284297         0.838406        -2.159502
 H         0.398798         1.150824        -4.767101
 H         1.705248         2.406160        -4.679033
 H         3.656304         1.863989        -2.084966
 H         2.126889         2.894454        -2.047741
 H         2.287057         1.790828         0.295742
