19
Iteration:  1578
 C        -0.062208         0.080594         0.080232
 C         1.211181         0.222365        -0.680225
 C         1.018053        -0.177541        -2.076771
 C         1.643315         0.995825        -2.951498
 C         1.099522         1.608697        -4.164588
 O         2.124078         0.601872        -4.365301
 C         2.806625         1.513947        -2.066825
 C         2.343717         1.152557        -0.637541
 O         2.496660        -0.159809        -0.153130
 H         0.018368         0.696432         1.078510
 H        -0.897076         0.499614        -0.550193
 H        -0.347790        -0.831023         0.358635
 H         1.616593        -0.937282        -2.520188
 H        -0.002055        -0.234682        -2.468128
 H         0.056569         1.374682        -4.386020
 H         1.367951         2.643631        -4.523330
 H         3.694042         0.917164        -2.326050
 H         3.082368         2.544023        -2.182854
 H         2.602846         1.820736         0.171839
