19
Iteration:  2678
 C        -0.023817        -0.039405         0.330308
 C         1.188733         0.245810        -0.673412
 C         0.839734        -0.097641        -2.135623
 C         1.669768         0.949036        -3.094232
 C         1.193395         1.541106        -4.282919
 O         2.297044         0.502960        -4.256201
 C         2.603931         1.744104        -2.029787
 C         2.337110         1.193198        -0.598894
 O         2.554524        -0.188925        -0.310969
 H        -0.507580        -1.060148         0.230664
 H         0.237446         0.297837         1.320676
 H        -0.848892         0.689496        -0.047674
 H         1.342440        -1.015767        -2.380826
 H        -0.299225         0.003023        -2.358999
 H         0.275817         1.234734        -4.779653
 H         1.602992         2.484783        -4.660829
 H         3.714045         1.647764        -2.263353
 H         2.419535         2.812774        -2.131045
 H         2.586298         1.765584         0.346079
