19
Iteration:  4931charge 0 multiplicity 1
 C         0.055308        -0.134244         0.381803
 C         1.164728         0.196362        -0.741060
 C         0.682134         0.134385        -2.164602
 C         1.678940         1.087117        -2.891308
 C         1.276222         1.291701        -4.330562
 O         2.457303         0.398522        -4.045751
 C         2.501549         1.936519        -1.896018
 C         2.254445         1.212067        -0.577824
 O         2.565406        -0.217993        -0.772568
 H         0.675150        -0.503456         1.282738
 H        -0.415107         0.785129         0.652843
 H        -0.597172        -0.976784         0.118289
 H         0.697711        -0.860004        -2.610023
 H        -0.316701         0.492600        -2.293618
 H         0.378035         0.748277        -4.699993
 H         1.492084         2.282064        -4.757992
 H         3.580748         2.124029        -2.113546
 H         2.018431         2.939906        -1.742684
 H         2.623024         1.710903         0.268005
