19
Iteration:  3085
 C         0.034126        -0.124555         0.268769
 C         1.169385         0.313269        -0.675482
 C         0.759223         0.067445        -2.078303
 C         1.670153         1.004067        -2.983806
 C         1.271541         1.442958        -4.312605
 O         2.323346         0.413207        -4.147645
 C         2.573487         1.848053        -2.058713
 C         2.322510         1.173753        -0.585537
 O         2.527821        -0.235284        -0.506426
 H         0.345246        -1.067912         0.873925
 H         0.046891         0.810068         0.942890
 H        -0.922418        -0.373906        -0.109102
 H         0.926592        -0.946785        -2.331322
 H        -0.219932         0.429283        -2.172208
 H         0.371687         1.162534        -4.835215
 H         1.675391         2.403930        -4.641665
 H         3.727083         1.824981        -2.156512
 H         2.200317         2.937748        -1.925899
 H         2.478819         1.591181         0.307922
