19
Iteration:   550
 C         0.370729        -0.246169         0.471928
 C         1.020848         0.314094        -0.736811
 C         0.366901         0.621584        -2.100176
 C         1.563640         1.255320        -2.897221
 C         1.725959         1.263347        -4.374570
 O         2.347949         0.193964        -3.684202
 C         2.521379         1.976049        -1.941480
 C         2.383213         1.051277        -0.748161
 O         2.314860        -0.414403        -1.027241
 H        -0.012939        -1.261659         0.016286
 H         1.068523        -0.401338         1.221648
 H        -0.642921         0.185203         0.806091
 H         0.102605        -0.311437        -2.659694
 H        -0.494871         1.300786        -2.114296
 H         0.882377         0.986835        -4.957037
 H         2.182954         2.121295        -4.809001
 H         3.613842         1.980024        -2.335927
 H         2.216500         2.970770        -1.656114
 H         2.889350         1.440670         0.169632
