19
Iteration:  4567
 C         0.089621        -0.195184         0.255061
 C         1.185176         0.236229        -0.751770
 C         0.885527        -0.023028        -2.189649
 C         1.669634         1.015170        -2.977481
 C         1.210340         1.454110        -4.268413
 O         2.278380         0.445082        -4.138427
 C         2.570180         1.782900        -2.007719
 C         2.186157         1.292802        -0.575774
 O         2.536806        -0.088325        -0.399378
 H        -0.303788        -1.133875         0.034377
 H         0.599373        -0.250412         1.246290
 H        -0.646719         0.633198         0.255319
 H         1.419547        -1.037006        -2.389231
 H        -0.201034        -0.025487        -2.487442
 H         0.269712         1.102919        -4.735531
 H         1.621604         2.333423        -4.717624
 H         3.534516         1.356890        -2.096026
 H         2.693143         2.871613        -2.236218
 H         2.259615         2.011454         0.306630
