19
Iteration:  4326charge 0 multiplicity 1
 C         0.317100        -0.197189         0.493835
 C         1.198000         0.098248        -0.799026
 C         0.488785         0.289543        -2.120364
 C         1.542813         1.050799        -2.982363
 C         1.648059         1.336657        -4.493813
 O         2.431289         0.271209        -3.814318
 C         2.180911         2.073523        -1.914233
 C         2.203127         1.145679        -0.620765
 O         2.594491        -0.187713        -0.827094
 H        -0.538028        -0.804492         0.212208
 H         0.895776        -0.551882         1.297446
 H        -0.143429         0.847560         0.789866
 H         0.181023        -0.710148        -2.616738
 H        -0.328387         0.962114        -2.004638
 H         0.984692         0.758754        -5.163899
 H         2.448910         2.031545        -4.858446
 H         3.110933         2.438959        -2.322224
 H         1.384823         2.900696        -1.912702
 H         2.502634         1.535720         0.462722
