19
Iteration:  4116
 C         0.030163        -0.060923         0.308626
 C         1.142064         0.233523        -0.711006
 C         0.887257        -0.131130        -2.162710
 C         1.642675         0.955968        -2.935276
 C         1.287483         1.508372        -4.251803
 O         2.291251         0.503380        -4.233836
 C         2.597131         1.733123        -2.020533
 C         2.260086         1.257999        -0.587464
 O         2.507288        -0.144088        -0.428069
 H        -0.663442        -0.928916         0.199930
 H         0.531091         0.021669         1.301363
 H        -0.633404         0.771924         0.330273
 H         1.548051        -1.083050        -2.341564
 H        -0.082786        -0.295827        -2.518687
 H         0.281117         1.186259        -4.657254
 H         1.647751         2.514319        -4.596499
 H         3.529180         1.753064        -2.556284
 H         2.338555         2.775148        -2.065511
 H         2.415639         1.895154         0.200765
