19
Iteration:   275charge 0 multiplicity 1
 C        -0.096286         0.223889         0.026734
 C         1.192455         0.183492        -0.752538
 C         1.138291        -0.336630        -2.285766
 C         1.918320         0.839022        -3.039660
 C         1.112875         1.803149        -3.715591
 O         1.890109         0.853909        -4.464388
 C         3.055146         1.203357        -2.102449
 C         2.257140         1.210953        -0.806671
 O         2.299836        -0.209842         0.026075
 H        -0.006959        -0.568746         0.862530
 H        -0.139820         1.193989         0.583185
 H        -0.957658         0.394898        -0.668757
 H         1.569834        -1.309632        -2.409971
 H         0.090261        -0.236063        -2.704443
 H         0.059995         1.770813        -3.862572
 H         1.568806         2.738879        -3.622218
 H         3.685323         0.252790        -2.249064
 H         3.620681         2.093418        -2.253739
 H         2.370099         2.164422        -0.164765
