19
Iteration:  2539charge 0 multiplicity 1
 C         0.076667        -0.071275         0.316206
 C         1.158601         0.217099        -0.766984
 C         0.830667        -0.038769        -2.151757
 C         1.735195         0.919651        -2.919773
 C         1.335395         1.376354        -4.271447
 O         2.275957         0.411733        -4.171213
 C         2.549929         1.804220        -2.012126
 C         2.153219         1.281284        -0.585459
 O         2.563554        -0.047247        -0.513762
 H        -0.364088         0.980854         0.646231
 H        -0.604205        -0.892030        -0.089780
 H         0.515183        -0.489563         1.139840
 H         0.987469        -1.137563        -2.426130
 H        -0.231309         0.239400        -2.306609
 H         0.294011         1.024763        -4.543737
 H         1.562265         2.310621        -4.856011
 H         3.659184         1.731081        -1.877073
 H         2.245849         2.876482        -1.923118
 H         2.282642         1.982968         0.270595
