19
Iteration:  3162
 C         0.122506        -0.153000         0.449785
 C         1.078753         0.277912        -0.732328
 C         0.711275         0.032409        -2.137537
 C         1.757947         0.950624        -2.996616
 C         1.299070         1.451653        -4.337198
 O         2.358574         0.487772        -4.231306
 C         2.578456         1.742593        -2.047875
 C         2.210194         1.259921        -0.607631
 O         2.509913        -0.146210        -0.433975
 H        -0.369159        -1.194306         0.347294
 H         0.822703        -0.240535         1.364120
 H        -0.692106         0.578156         0.646235
 H         1.006162        -0.890478        -2.515165
 H        -0.267057         0.292747        -2.435365
 H         0.399377         1.088624        -4.822177
 H         1.575908         2.488182        -4.558377
 H         3.582593         1.259161        -2.174196
 H         2.514024         2.857710        -2.121036
 H         2.285440         1.875212         0.205471
