19
Iteration:  2618
 C         0.155029        -0.019794         0.402015
 C         1.114295         0.199381        -0.727101
 C         0.856139        -0.095966        -2.172667
 C         1.708315         0.885347        -2.962694
 C         1.272821         1.462866        -4.283095
 O         2.304670         0.561369        -4.266030
 C         2.643368         1.670985        -2.030903
 C         2.119605         1.279290        -0.647851
 O         2.494477        -0.096836        -0.387685
 H        -0.808170        -0.199833        -0.075688
 H         0.323602        -0.905584         1.103178
 H        -0.047247         0.825511         1.018011
 H         1.033742        -1.136047        -2.568511
 H        -0.207156        -0.004106        -2.260512
 H         0.315524         1.156804        -4.756927
 H         1.597874         2.479555        -4.590861
 H         3.659122         1.355300        -1.927927
 H         2.572218         2.752677        -2.206872
 H         2.191938         1.983168         0.172982
