19
Iteration:  3775charge 0 multiplicity 1
 C         0.319318        -0.118963         0.440780
 C         1.153275         0.328802        -0.738646
 C         0.508992         0.167097        -2.210292
 C         1.523911         1.008070        -2.979482
 C         1.572594         1.397668        -4.367072
 O         2.431100         0.318936        -3.871939
 C         2.328601         1.894340        -2.010418
 C         2.293814         1.208980        -0.657382
 O         2.493716        -0.274329        -0.698544
 H         0.066095        -1.184288         0.091887
 H         0.824695        -0.243279         1.405120
 H        -0.660156         0.458540         0.379079
 H         0.449606        -0.934021        -2.636384
 H        -0.476679         0.676731        -2.062720
 H         0.857343         1.048977        -5.145608
 H         2.008188         2.411808        -4.444880
 H         3.346347         2.155434        -2.392433
 H         1.721145         2.773669        -1.709627
 H         2.514692         1.805173         0.295459
