19
Iteration:  1535
 C        -0.007789         0.131208         0.260445
 C         1.129702         0.169057        -0.847686
 C         1.018785        -0.278071        -2.278286
 C         1.859314         0.858398        -2.954823
 C         1.154172         1.669088        -3.927587
 O         2.063879         0.611117        -4.403844
 C         2.901337         1.491336        -2.057287
 C         2.203515         1.208643        -0.713304
 O         2.397483        -0.090275        -0.195064
 H         0.254705         0.995955         0.974153
 H        -1.060198         0.156098        -0.150429
 H         0.083559        -0.754685         0.801545
 H         1.527127        -1.244329        -2.207363
 H        -0.077322        -0.366868        -2.470700
 H         0.094020         1.618869        -4.128069
 H         1.504610         2.724015        -4.131362
 H         3.963554         1.287610        -2.219158
 H         2.963769         2.567647        -2.277772
 H         2.098528         2.007634        -0.007220
