19
Iteration:  2875charge 0 multiplicity 1
 C         0.355583        -0.157053         0.458250
 C         1.118011         0.185270        -0.768497
 C         0.384660         0.311958        -2.200675
 C         1.615760         1.108583        -2.992290
 C         1.666792         1.403556        -4.402173
 O         2.305757         0.255051        -3.911567
 C         2.418620         1.921015        -1.907179
 C         2.219185         1.150647        -0.652011
 O         2.538494        -0.245997        -0.736599
 H         0.467529         0.533217         1.356018
 H        -0.704363        -0.360977         0.273292
 H         0.828529        -1.098300         0.841518
 H        -0.152626        -0.477680        -2.735526
 H        -0.470906         0.923646        -1.778277
 H         0.802054         1.166365        -5.038147
 H         2.401519         2.145332        -4.734290
 H         3.465422         1.634373        -2.293394
 H         1.988706         2.988802        -1.872831
 H         2.373543         1.625713         0.304228
