19
Iteration:  3244
 C         0.252966        -0.075501         0.476654
 C         1.098402         0.230033        -0.731711
 C         0.649464         0.086686        -2.183008
 C         1.655302         0.968558        -2.987756
 C         1.421625         1.431622        -4.354004
 O         2.437206         0.415627        -4.072825
 C         2.375690         1.845934        -2.012361
 C         2.171899         1.223541        -0.652165
 O         2.543276        -0.260133        -0.555597
 H        -0.142056        -1.064118         0.455947
 H         0.794315         0.177503         1.414436
 H        -0.698433         0.581496         0.525276
 H         0.680979        -0.986897        -2.559302
 H        -0.380703         0.411219        -2.452207
 H         0.574120         1.072519        -4.948429
 H         1.757391         2.450767        -4.637488
 H         3.389013         1.952613        -2.390734
 H         2.171255         2.968376        -1.969158
 H         2.517370         1.731888         0.329867
