19
Iteration:  3560charge 0 multiplicity 1
 C         0.128606        -0.006908         0.356959
 C         1.139033         0.135506        -0.730348
 C         0.828842         0.012355        -2.252399
 C         1.713513         0.953154        -2.980399
 C         1.334520         1.550040        -4.323762
 O         2.255123         0.363882        -4.170676
 C         2.587077         1.801172        -1.937567
 C         2.149212         1.255748        -0.603169
 O         2.535220        -0.171305        -0.441418
 H        -0.173514        -1.052117         0.432277
 H         0.805773         0.176559         1.292583
 H        -0.993266         0.359709         0.230207
 H         1.142465        -0.947382        -2.590875
 H        -0.216827         0.290159        -2.540535
 H         0.350664         1.163105        -4.618479
 H         1.636802         2.515335        -4.730277
 H         3.635154         1.694554        -2.133988
 H         2.271087         2.841164        -1.841813
 H         2.179033         1.782507         0.323728
