19
Iteration:  1807charge 0 multiplicity 1
 C         0.267526        -0.214478         0.400006
 C         1.131690         0.240048        -0.766617
 C         0.554008         0.411810        -2.164251
 C         1.597612         1.061218        -2.897068
 C         1.528241         1.242385        -4.366524
 O         2.397295         0.265198        -3.751708
 C         2.400557         1.988513        -1.926105
 C         2.254497         1.193121        -0.658467
 O         2.508394        -0.251699        -0.925618
 H         0.926205        -0.333563         1.361135
 H        -0.612597         0.489093         0.462538
 H        -0.164990        -1.103964         0.128533
 H         0.070943        -0.370953        -2.709312
 H        -0.261456         1.072693        -1.935368
 H         0.645760         0.804958        -4.912003
 H         1.958446         2.086394        -4.920564
 H         3.455655         2.003296        -2.111207
 H         1.892006         2.915970        -1.934385
 H         2.644230         1.462204         0.336678
