19
Iteration:  4836charge 0 multiplicity 1
 C         0.335681        -0.342666         0.366731
 C         1.101769         0.313242        -0.765651
 C         0.531563         0.362868        -2.207362
 C         1.629976         1.133721        -2.929202
 C         1.508306         1.348338        -4.371709
 O         2.382493         0.189081        -3.840050
 C         2.390083         1.996337        -1.890472
 C         2.200539         1.197030        -0.612507
 O         2.521865        -0.215935        -0.810663
 H         0.433043         0.235393         1.218737
 H        -0.704387        -0.298492         0.060467
 H         0.750422        -1.331562         0.664238
 H         0.257700        -0.613757        -2.599538
 H        -0.499932         0.835938        -2.074852
 H         0.498655         1.168830        -4.814056
 H         2.061212         2.030107        -5.042652
 H         3.495890         2.071056        -2.129034
 H         2.005675         3.001770        -1.822411
 H         2.708591         1.539602         0.253868
