19
Iteration:  3997charge 0 multiplicity 1
 C         0.158662        -0.056919         0.355658
 C         1.137475         0.162377        -0.683240
 C         0.764661         0.007622        -2.180107
 C         1.785867         0.951116        -2.966936
 C         1.348874         1.459855        -4.319064
 O         2.268304         0.393607        -4.191855
 C         2.533908         1.833816        -1.888705
 C         2.146355         1.219304        -0.622390
 O         2.545241        -0.136526        -0.560678
 H        -0.266562        -1.085726         0.318453
 H         0.575740         0.430390         1.314670
 H        -0.646308         0.539883        -0.013944
 H         0.755748        -1.148586        -2.339791
 H        -0.239360         0.351985        -2.374629
 H         0.403299         1.039362        -4.652505
 H         1.731523         2.428981        -4.619871
 H         3.565748         2.075288        -2.033895
 H         2.142866         2.860752        -1.796716
 H         2.305994         1.783701         0.273408
