19
Iteration:  2425
 C         0.272595        -0.380687         0.386660
 C         1.125291         0.286764        -0.647758
 C         0.594174         0.361378        -2.138021
 C         1.553122         1.098358        -3.007896
 C         1.583634         1.250626        -4.487051
 O         2.376514         0.253995        -3.850499
 C         2.371973         1.932356        -2.049319
 C         2.245875         1.288115        -0.644349
 O         2.481984        -0.112664        -0.676350
 H        -0.785499        -0.251742         0.292754
 H         0.584167        -1.422375         0.435555
 H         0.489082        -0.040885         1.557082
 H         0.352239        -0.597693        -2.483874
 H        -0.462056         0.713231        -1.943365
 H         0.729507         0.833364        -5.009074
 H         2.263136         1.976054        -4.945750
 H         3.405408         1.965309        -2.385072
 H         1.998676         2.961697        -1.861130
 H         2.579278         1.881373         0.207321
