19
Iteration:  3789charge 0 multiplicity 1
 C         0.305227        -0.186639         0.436605
 C         1.113885         0.231549        -0.748778
 C         0.541047         0.261446        -2.097582
 C         1.547153         1.038562        -2.973742
 C         1.587311         1.367944        -4.435877
 O         2.459195         0.361396        -3.813856
 C         2.305758         1.971477        -2.017135
 C         2.253048         1.134466        -0.750715
 O         2.462363        -0.251716        -0.681756
 H        -0.290065        -1.158099         0.338693
 H         1.169168        -0.267588         1.274262
 H        -0.395881         0.474810         0.854909
 H         0.497453        -0.808009        -2.427649
 H        -0.536650         0.609295        -2.300576
 H         0.832754         0.936937        -5.113943
 H         2.117609         2.219734        -4.907662
 H         3.314172         2.098910        -2.452584
 H         1.915597         3.053814        -2.028656
 H         2.639813         1.576639         0.125741
