19
Iteration:  2445charge 0 multiplicity 1
 C         0.275697        -0.205008         0.378233
 C         1.119125         0.327604        -0.773934
 C         0.529456         0.176600        -2.172376
 C         1.622327         0.973972        -2.904246
 C         1.487532         1.336623        -4.404946
 O         2.427046         0.225394        -3.893149
 C         2.385694         2.013094        -1.939911
 C         2.222503         1.247533        -0.675327
 O         2.553667        -0.153996        -0.705716
 H        -0.659553         0.226599         0.249660
 H         0.291504        -1.363598         0.429106
 H         0.536371         0.230880         1.468762
 H         0.471166        -0.870317        -2.553045
 H        -0.527389         0.562513        -2.075752
 H         0.678476         0.909579        -4.981113
 H         1.941663         2.308275        -4.682113
 H         3.437823         2.083446        -2.180330
 H         1.863907         2.975813        -2.123270
 H         2.423213         1.665892         0.320937
