19
Iteration:  1604charge 0 multiplicity 1
 C         0.029529         0.147517         0.265004
 C         1.163478         0.266995        -0.762182
 C         0.972682        -0.214839        -2.220205
 C         1.741798         0.858559        -3.004034
 C         1.053059         1.571613        -4.113916
 O         2.206676         0.643216        -4.364323
 C         2.828143         1.540512        -2.057895
 C         2.246443         1.200290        -0.610818
 O         2.444686        -0.198131        -0.188210
 H         0.432754         0.209113         1.196105
 H        -0.748100         0.903496         0.127552
 H        -0.600933        -0.830108         0.222088
 H         1.518273        -1.100593        -2.599890
 H        -0.043957        -0.155531        -2.617068
 H         0.049208         1.352774        -4.513656
 H         1.374996         2.578151        -4.312851
 H         3.903147         1.251608        -2.122472
 H         2.812623         2.661067        -2.337973
 H         2.306470         1.882752         0.233090
