19
Iteration:  3910
 C         0.318935        -0.203487         0.415957
 C         1.105210         0.182512        -0.827247
 C         0.573107         0.254949        -2.209938
 C         1.722587         0.994381        -2.890275
 C         1.507999         1.352092        -4.292169
 O         2.359433         0.254561        -3.923877
 C         2.452593         1.955935        -1.984178
 C         2.151173         1.238798        -0.622331
 O         2.470218        -0.147636        -0.752278
 H         0.356716        -1.355274         0.497126
 H         1.069246         0.103962         1.271366
 H        -0.708797        -0.082833         0.587844
 H         0.018468        -0.598986        -2.624610
 H        -0.301025         1.016639        -2.218282
 H         0.592961         0.981928        -4.760075
 H         1.942985         2.277279        -4.686269
 H         3.463040         2.242053        -2.281241
 H         1.946858         2.981947        -1.977879
 H         2.219245         1.733304         0.310752
