19
Iteration:  2937charge 0 multiplicity 1
 C         0.258474        -0.374660         0.283242
 C         1.129896         0.353130        -0.732966
 C         0.496422         0.579760        -2.078228
 C         1.593087         1.142434        -2.910895
 C         1.446306         1.197554        -4.435703
 O         2.439790         0.256975        -3.740540
 C         2.440055         1.938218        -1.952269
 C         2.360269         1.182844        -0.628189
 O         2.439927        -0.268171        -0.846110
 H         0.235445         0.120292         1.185910
 H        -0.756496        -0.437877        -0.058799
 H         0.774843        -1.455901         0.491867
 H         0.315045        -0.452179        -2.519851
 H        -0.367430         1.206949        -1.863920
 H         0.601790         0.641332        -4.888964
 H         1.858930         1.950765        -5.151094
 H         3.468268         1.954830        -2.193265
 H         2.235605         2.983568        -2.135027
 H         2.715121         1.754502         0.365265
