19
Iteration:  4714
 C         0.150972        -0.261132         0.507547
 C         1.141635         0.191409        -0.717539
 C         0.554050         0.137656        -2.095682
 C         1.582969         1.047521        -3.000313
 C         1.449927         1.431375        -4.434133
 O         2.461955         0.434762        -4.135906
 C         2.528955         1.860757        -1.981613
 C         2.197151         1.244294        -0.568266
 O         2.536858        -0.183216        -0.613244
 H         0.781371        -0.280426         1.432791
 H        -0.607043         0.468278         0.625724
 H        -0.251620        -1.280613         0.306206
 H         0.438044        -0.893358        -2.501793
 H        -0.526486         0.535368        -2.109442
 H         0.488519         1.114958        -4.987646
 H         1.927328         2.381182        -4.828101
 H         3.654131         1.732223        -2.293116
 H         2.353339         2.937910        -2.110979
 H         2.349288         1.758132         0.311661
