19
Iteration:   193charge 0 multiplicity 1
 C         0.079287         0.207905         0.357390
 C         1.116707         0.208826        -0.766779
 C         0.773205        -0.093601        -2.239698
 C         1.764944         0.947559        -2.995075
 C         1.300167         1.674606        -4.232514
 O         2.231321         0.609999        -4.329149
 C         2.731529         1.619622        -1.912649
 C         2.289594         1.029907        -0.560397
 O         2.415293        -0.380757        -0.387763
 H        -0.752284        -0.422946         0.135338
 H         0.709430        -0.084745         1.287307
 H        -0.434510         1.157067         0.595108
 H         0.788948        -1.103169        -2.732861
 H        -0.276108         0.190441        -2.233700
 H         0.288908         1.364077        -4.597278
 H         1.644130         2.762640        -4.422220
 H         3.718650         1.245109        -2.184381
 H         2.780270         2.735165        -2.097588
 H         2.370495         1.663965         0.295514
