19
Iteration:  3845charge 0 multiplicity 1
 C         0.313730        -0.306970         0.357164
 C         1.150444         0.253163        -0.809245
 C         0.541107         0.389318        -2.168347
 C         1.597725         1.081535        -2.899928
 C         1.540271         1.233648        -4.314949
 O         2.415847         0.203681        -3.773230
 C         2.351056         1.986580        -1.976154
 C         2.245772         1.270260        -0.685448
 O         2.508786        -0.152965        -0.787659
 H        -0.390645        -1.017538        -0.138428
 H         0.968596        -1.044880         0.997476
 H        -0.301715         0.392313         0.886610
 H         0.286262        -0.544225        -2.641935
 H        -0.334710         1.174589        -2.122602
 H         0.633227         0.795432        -4.738470
 H         1.966608         2.069272        -4.869448
 H         3.348166         2.275550        -2.314182
 H         1.575734         2.834240        -2.009955
 H         2.430783         1.680355         0.273409
