19
Iteration:  1726charge 0 multiplicity 1
 C         0.230167        -0.070857         0.351333
 C         1.133391         0.274118        -0.760336
 C         0.666912         0.158346        -2.208913
 C         1.678560         0.916015        -2.942499
 C         1.321796         1.531002        -4.252181
 O         2.327549         0.346357        -4.093112
 C         2.628960         1.786301        -1.941022
 C         2.224446         1.195003        -0.636963
 O         2.439072        -0.234706        -0.584090
 H         0.303016         0.481278         1.232543
 H        -0.786334         0.142212         0.087255
 H         0.307794        -1.252467         0.631304
 H         0.575013        -0.928497        -2.359161
 H        -0.313533         0.657184        -2.313847
 H         0.340975         1.381106        -4.681531
 H         1.900338         2.389330        -4.595912
 H         3.673700         1.538822        -2.275513
 H         2.560182         2.910721        -2.132144
 H         2.411931         1.729576         0.308790
