19
Iteration:  1075charge 0 multiplicity 1
 C         0.304005        -0.079153         0.505746
 C         1.117456         0.201779        -0.794936
 C         0.511497         0.363181        -2.144301
 C         1.604965         1.032577        -2.945587
 C         1.578071         1.310092        -4.383295
 O         2.432072         0.336448        -3.816907
 C         2.352278         1.904459        -1.953975
 C         2.261798         1.117577        -0.700031
 O         2.457503        -0.292100        -0.872151
 H         1.015135        -0.346134         1.402786
 H        -0.330231         0.728025         0.734673
 H        -0.348937        -0.952120         0.395343
 H         0.247531        -0.612852        -2.563106
 H        -0.272934         1.141188        -2.087717
 H         0.849815         0.950070        -5.117018
 H         2.103500         2.222017        -4.754232
 H         3.426863         1.971132        -2.325088
 H         1.761155         2.787137        -1.632925
 H         2.406467         1.507206         0.344660
