19
Iteration:  3882charge 0 multiplicity 1
 C         0.277620        -0.324292         0.396614
 C         1.184933         0.225888        -0.687129
 C         0.518253         0.369830        -2.093078
 C         1.525499         1.154355        -2.963023
 C         1.644126         1.279205        -4.479281
 O         2.323156         0.252604        -3.828235
 C         2.344100         1.877180        -1.995704
 C         2.232837         1.256917        -0.640064
 O         2.571166        -0.121247        -0.749211
 H         0.007642        -1.225829        -0.129819
 H         0.758505        -0.598143         1.228114
 H        -0.774929         0.051684         0.639659
 H         0.349347        -0.595054        -2.576589
 H        -0.503799         0.680296        -2.091970
 H         0.830331         0.935184        -5.116234
 H         2.278312         2.080686        -4.866112
 H         3.357785         1.974953        -2.405307
 H         2.157850         2.923050        -1.819411
 H         2.354174         1.923897         0.303045
