19
Iteration:  4354charge 0 multiplicity 1
 C         0.380197        -0.329206         0.460542
 C         1.106207         0.238139        -0.799209
 C         0.464378         0.419863        -2.158871
 C         1.618471         1.032734        -2.935428
 C         1.621973         1.269543        -4.351728
 O         2.478846         0.214820        -3.787260
 C         2.219375         2.035847        -1.960029
 C         2.195317         1.204773        -0.651678
 O         2.481444        -0.154823        -0.857421
 H         0.104338        -1.405995         0.253578
 H         1.206887        -0.334695         1.232305
 H        -0.431691         0.218744         0.832981
 H         0.272035        -0.535158        -2.610268
 H        -0.391311         1.179694        -2.133577
 H         0.802144         0.866524        -4.974658
 H         2.193656         2.004537        -4.929949
 H         3.219686         2.386043        -2.367508
 H         1.612279         2.911661        -2.037041
 H         2.627268         1.603501         0.189049
