19
Iteration:  3050charge 0 multiplicity 1
 C         0.198798        -0.097006         0.380624
 C         1.091995         0.179107        -0.782312
 C         0.647024         0.181804        -2.178174
 C         1.703165         1.067679        -2.981475
 C         1.265837         1.356325        -4.387714
 O         2.424982         0.430242        -4.075085
 C         2.556887         1.841388        -1.913425
 C         2.217742         1.179314        -0.554294
 O         2.518621        -0.276432        -0.576550
 H         0.736125        -0.764868         1.175053
 H         0.129039         0.931553         0.906022
 H        -0.822450        -0.265686         0.120720
 H         0.517198        -0.746587        -2.678038
 H        -0.362648         0.565775        -2.214459
 H         0.320622         0.912495        -4.742584
 H         1.617410         2.254377        -4.890328
 H         3.685042         1.801703        -2.167511
 H         2.367134         2.941765        -2.074872
 H         2.392704         1.718509         0.374013
