19
Iteration:   877charge 0 multiplicity 1
 C        -0.158787         0.322195         0.007714
 C         1.203421         0.194986        -0.806764
 C         1.267955        -0.356283        -2.192243
 C         1.814219         0.840144        -2.921520
 C         1.039492         1.582814        -3.903450
 O         1.961922         0.716053        -4.372827
 C         2.907643         1.503625        -2.095272
 C         2.325580         1.161844        -0.650854
 O         2.381428        -0.185281        -0.128989
 H         0.235292         0.514497         1.170838
 H        -0.581216         1.340154        -0.184821
 H        -0.894445        -0.485593        -0.115383
 H         1.926187        -1.237342        -2.145495
 H         0.445894        -0.694939        -2.812748
 H         0.004835         1.254514        -4.125327
 H         1.328072         2.609834        -3.967114
 H         3.803636         1.011942        -2.462297
 H         2.898985         2.545464        -2.256864
 H         2.384309         1.979728         0.064301
