19
Iteration:  3952
 C         0.155720        -0.149832         0.490012
 C         1.132476         0.251663        -0.721386
 C         0.645885         0.111445        -2.087344
 C         1.544902         1.019064        -2.982235
 C         1.429050         1.376274        -4.500191
 O         2.415318         0.481315        -4.005825
 C         2.478021         1.869182        -1.977170
 C         2.342427         1.192936        -0.692867
 O         2.482408        -0.240870        -0.576662
 H         0.246372        -1.281884         0.600067
 H         0.322533         0.527960         1.442949
 H        -0.827943        -0.123653         0.140287
 H         0.623809        -0.868903        -2.744082
 H        -0.349596         0.388877        -2.068021
 H         0.586233         0.971486        -5.115363
 H         2.022403         2.261263        -4.815986
 H         3.476237         2.023963        -2.398036
 H         2.185462         2.897746        -1.924161
 H         2.462417         1.628382         0.241106
