19
Iteration:  4033
 C         0.182755        -0.142148         0.355684
 C         1.083685         0.254143        -0.751047
 C         0.789341        -0.065322        -2.171235
 C         1.642543         0.925853        -2.970059
 C         1.311300         1.498211        -4.346717
 O         2.318856         0.496830        -4.156090
 C         2.627634         1.728274        -2.031876
 C         2.222097         1.261245        -0.684385
 O         2.465940        -0.080403        -0.326809
 H        -0.399676        -0.971631         0.008153
 H         0.637813        -0.548350         1.180326
 H        -0.515525         0.704512         0.732405
 H         1.124233        -0.962032        -2.514481
 H        -0.320283         0.062042        -2.433128
 H         0.426038         1.176766        -4.844302
 H         1.548697         2.515915        -4.565326
 H         3.572996         1.377121        -2.407852
 H         2.408420         2.842829        -2.051545
 H         2.498290         1.942662         0.204401
