19
Iteration:   539
 C         0.325376        -0.230864         0.470561
 C         1.119557         0.253166        -0.773984
 C         0.501238         0.620950        -2.149279
 C         1.587585         1.212320        -2.935444
 C         1.606466         1.321327        -4.397549
 O         2.355884         0.243808        -3.726196
 C         2.518925         1.892641        -1.944679
 C         2.328089         1.081556        -0.660920
 O         2.265283        -0.399696        -0.960650
 H         0.292731        -1.386591         0.444235
 H         0.901412        -0.084851         1.342782
 H        -0.676400         0.260516         0.735252
 H         0.045028        -0.216877        -2.721166
 H        -0.308940         1.338269        -1.941497
 H         0.842225         1.025270        -5.065094
 H         2.326247         2.024690        -4.742996
 H         3.559860         1.933384        -2.436147
 H         2.102242         2.866052        -1.781295
 H         2.970099         1.232441         0.229292
