19
Iteration:  4719
 C         0.200111        -0.243371         0.519105
 C         1.074380         0.179357        -0.722558
 C         0.547169         0.120130        -2.098353
 C         1.586571         1.030748        -3.031482
 C         1.474675         1.451887        -4.450847
 O         2.434002         0.420962        -4.105893
 C         2.523005         1.858421        -1.930045
 C         2.210877         1.288321        -0.584427
 O         2.546288        -0.184112        -0.651139
 H         0.717005        -0.240206         1.464173
 H        -0.735928         0.429838         0.576542
 H        -0.080962        -1.340363         0.499810
 H         0.398533        -0.808816        -2.652833
 H        -0.484704         0.359044        -2.084201
 H         0.622566         1.296431        -5.071238
 H         2.038447         2.226776        -4.924713
 H         3.494430         1.705289        -2.284419
 H         2.394932         2.975487        -1.958431
 H         2.403998         1.702902         0.508284
