19
Iteration:   436
 C         0.039608         0.101851         0.374469
 C         1.109963         0.240969        -0.739955
 C         0.819355        -0.063298        -2.205407
 C         1.743368         0.911789        -3.008731
 C         1.261595         1.728170        -4.164371
 O         2.185145         0.641878        -4.357237
 C         2.897955         1.395075        -1.982786
 C         2.212047         1.190058        -0.687033
 O         2.421385        -0.329313        -0.323186
 H        -0.339378        -0.921611         0.506404
 H         0.653509         0.463037         1.364116
 H        -0.720466         0.835236         0.310415
 H         0.953661        -1.109699        -2.485110
 H        -0.250557         0.295379        -2.332415
 H         0.235675         1.466634        -4.563948
 H         1.584276         2.776443        -4.308258
 H         3.885275         1.010868        -2.112604
 H         3.171104         2.487556        -2.238831
 H         1.961998         1.956085         0.089981
