19
Iteration:  2252charge 0 multiplicity 1
 C         0.147007        -0.200193         0.363415
 C         1.201464         0.262336        -0.722172
 C         0.625243         0.115826        -2.215255
 C         1.573432         0.954777        -2.976063
 C         1.444151         1.411985        -4.318570
 O         2.388276         0.386960        -4.071671
 C         2.496525         1.850626        -2.041671
 C         2.205008         1.264700        -0.674333
 O         2.563612        -0.153433        -0.416051
 H        -0.821994         0.407662         0.294887
 H        -0.011946        -1.186844         0.147527
 H         0.488093         0.052519         1.422420
 H         0.758337        -0.865900        -2.598909
 H        -0.434646         0.416574        -2.331802
 H         0.510646         1.098802        -4.755402
 H         1.826201         2.359016        -4.708297
 H         3.425451         1.725978        -2.557248
 H         2.155271         2.883051        -2.018328
 H         2.417586         1.771372         0.311776
