19
Iteration:   725charge 0 multiplicity 1
 C        -0.024247         0.181393         0.249053
 C         1.151272         0.203116        -0.691319
 C         0.917735        -0.141402        -2.133757
 C         1.708753         0.964647        -2.927376
 C         1.232666         1.585909        -4.208881
 O         2.211779         0.623109        -4.320008
 C         2.693612         1.554900        -2.014409
 C         2.297912         1.111926        -0.634638
 O         2.473477        -0.271284        -0.379956
 H        -0.403683         1.228159         0.500038
 H        -0.824610        -0.319376        -0.130325
 H         0.320586        -0.230565         1.194260
 H         1.386509        -1.150981        -2.226350
 H        -0.156772        -0.168445        -2.399657
 H         0.241768         1.468811        -4.614695
 H         1.605913         2.558815        -4.347696
 H         3.781518         1.346640        -2.316627
 H         2.769529         2.639465        -1.962554
 H         2.430041         1.789995         0.218089
