19
Iteration:  1695charge 0 multiplicity 1
 C         0.009681        -0.123706         0.318758
 C         1.153020         0.240064        -0.652483
 C         0.805663         0.130987        -2.216123
 C         1.699390         1.017710        -3.007933
 C         1.226314         1.447247        -4.305996
 O         2.233285         0.433579        -4.283975
 C         2.736330         1.756162        -1.932055
 C         2.336155         1.159172        -0.617064
 O         2.517318        -0.168822        -0.338118
 H         0.232529         0.014854         1.373358
 H        -0.741496         0.466164        -0.049039
 H        -0.451669        -1.133834         0.220740
 H         0.781115        -0.872193        -2.569880
 H        -0.197525         0.532723        -2.250542
 H         0.179951         1.315116        -4.516020
 H         1.680416         2.348106        -4.757726
 H         3.632231         1.289014        -2.365653
 H         2.667670         2.789582        -2.080555
 H         2.463142         1.803303         0.288238
