19
Iteration:   817charge 0 multiplicity 1
 C        -0.095445         0.145636         0.023615
 C         1.185754         0.154015        -0.768564
 C         1.136037        -0.373146        -2.204355
 C         1.820514         0.740045        -3.026721
 C         1.062597         1.797022        -3.849432
 O         2.002641         0.749554        -4.378977
 C         2.947515         1.211359        -2.115314
 C         2.228137         1.287386        -0.779859
 O         2.441682         0.025903         0.016985
 H         0.050421         0.360214         1.002874
 H        -0.809417         0.889625        -0.421194
 H        -0.665187        -0.826626         0.045946
 H         1.907221        -1.156706        -2.116120
 H         0.176491        -0.774809        -2.561756
 H        -0.026005         1.800176        -4.061546
 H         1.484346         2.845679        -3.940318
 H         3.851335         0.689360        -2.382936
 H         3.216155         2.279580        -2.442998
 H         2.126757         2.267817        -0.290723
