19
Iteration:  3975
 C         0.134445        -0.032329         0.327507
 C         1.176869         0.176226        -0.743590
 C         0.699183         0.109933        -2.213881
 C         1.605980         1.002200        -2.958663
 C         1.358340         1.448671        -4.317459
 O         2.370851         0.401463        -4.028695
 C         2.427612         1.845728        -2.025123
 C         2.254517         1.211663        -0.613170
 O         2.580225        -0.254083        -0.481667
 H         0.178758        -1.148503         0.447671
 H         0.583229         0.613713         1.183116
 H        -0.866973         0.141595         0.076709
 H         0.908263        -0.923516        -2.746548
 H        -0.338425         0.261662        -2.272196
 H         0.436241         1.012861        -4.732502
 H         1.796828         2.407833        -4.583745
 H         3.365889         1.877320        -2.550839
 H         2.218260         2.915419        -2.051092
 H         2.471434         1.655428         0.315553
