19
Iteration:  3911charge 0 multiplicity 1
 C         0.321111        -0.198081         0.420624
 C         1.105315         0.182505        -0.816762
 C         0.574686         0.253973        -2.212780
 C         1.734048         0.988629        -2.889695
 C         1.501947         1.349634        -4.290128
 O         2.363555         0.259532        -3.932424
 C         2.451572         1.953068        -1.981112
 C         2.148743         1.233143        -0.628157
 O         2.465201        -0.147838        -0.756273
 H         0.404114        -1.325161         0.501000
 H         1.021390         0.093465         1.265513
 H        -0.737487        -0.070603         0.596292
 H         0.084869        -0.583864        -2.643511
 H        -0.318794         1.042912        -2.185493
 H         0.589267         1.009390        -4.758027
 H         1.929671         2.258605        -4.687681
 H         3.464305         2.214432        -2.294056
 H         1.913748         2.973550        -1.943160
 H         2.193495         1.758265         0.321881
