19
Iteration:  3965
 C         0.187689        -0.103798         0.352065
 C         1.169907         0.203061        -0.676406
 C         0.662971         0.095214        -2.191861
 C         1.570420         1.085878        -2.984886
 C         1.406861         1.434041        -4.383067
 O         2.382233         0.446493        -3.953222
 C         2.453779         1.839344        -2.081574
 C         2.268446         1.150074        -0.712029
 O         2.532287        -0.256373        -0.482296
 H         0.229185        -1.141271         0.724110
 H         0.270622         0.504569         1.304544
 H        -0.779431         0.192366         0.000487
 H         0.812592        -0.944332        -2.370748
 H        -0.360265         0.402046        -2.294091
 H         0.609776         0.968659        -4.960512
 H         1.671113         2.409035        -4.755981
 H         3.468737         1.776644        -2.392476
 H         2.068393         2.837107        -1.822897
 H         2.590808         1.825008         0.055034
