19
Iteration:  3254
 C         0.250958        -0.125172         0.530237
 C         1.121343         0.290079        -0.675899
 C         0.535158         0.058544        -2.224087
 C         1.625305         0.935436        -3.007912
 C         1.450585         1.447506        -4.355967
 O         2.487047         0.446319        -4.037072
 C         2.437684         1.814095        -2.022138
 C         2.246029         1.225710        -0.697288
 O         2.462219        -0.212685        -0.613209
 H         0.214420        -1.174363         0.521563
 H         0.894520         0.129784         1.367320
 H        -0.847118         0.333512         0.598020
 H         0.642951        -1.011961        -2.506475
 H        -0.447946         0.417314        -2.116245
 H         0.649149         1.012056        -4.959669
 H         1.835542         2.446656        -4.614040
 H         3.493941         1.736252        -2.237958
 H         1.973166         2.893132        -1.941637
 H         2.253080         2.043291         0.107990
