19
Iteration:   800charge 0 multiplicity 1
 C        -0.069662         0.146785         0.073036
 C         1.153404         0.219897        -0.763340
 C         1.218104        -0.373096        -2.184245
 C         1.720039         0.777525        -2.992540
 C         1.205160         1.766557        -3.885610
 O         1.970343         0.747569        -4.490081
 C         2.852959         1.306506        -2.128291
 C         2.219862         1.181101        -0.714437
 O         2.418849         0.013237        -0.016120
 H        -0.006614         0.803372         1.093586
 H        -0.939088         0.577268        -0.482446
 H        -0.210070        -0.864459         0.353377
 H         1.930604        -1.196774        -2.368469
 H         0.259980        -0.766855        -2.534670
 H         0.131543         1.710270        -4.187033
 H         1.584906         2.770272        -3.828352
 H         3.670124         0.564182        -1.975247
 H         3.370137         2.214809        -2.397050
 H         2.219879         2.044606        -0.045315
