19
Iteration:  1942
 C         0.181286        -0.064270         0.443920
 C         1.094742         0.209117        -0.651598
 C         0.609052         0.172474        -2.168424
 C         1.681480         0.991111        -3.001401
 C         1.361543         1.344403        -4.468550
 O         2.466636         0.460433        -3.999498
 C         2.428877         1.851455        -1.947000
 C         2.286227         1.133185        -0.628153
 O         2.535303        -0.257409        -0.618534
 H        -0.477433        -0.865947         0.272449
 H         0.753835        -0.362265         1.430373
 H        -0.479129         0.909193         0.468143
 H         0.617776        -0.846443        -2.695720
 H        -0.387102         0.557525        -2.355832
 H         0.501152         0.967211        -5.001878
 H         1.723362         2.335914        -4.848262
 H         3.393902         2.136885        -2.369439
 H         1.941117         2.817993        -1.795771
 H         2.522373         1.765440         0.223420
