19
Iteration:   441charge 0 multiplicity 1
 C         0.086655         0.089167         0.395366
 C         1.121214         0.237809        -0.741542
 C         0.804668        -0.031043        -2.198223
 C         1.734627         0.939976        -3.037577
 C         1.264683         1.740154        -4.200294
 O         2.194359         0.608198        -4.335064
 C         2.848075         1.423552        -1.991430
 C         2.213486         1.172008        -0.631974
 O         2.397115        -0.319588        -0.351937
 H        -0.176775        -0.995163         0.574773
 H         0.476308         0.397312         1.296894
 H        -0.843385         0.760762         0.253095
 H         0.938074        -1.083770        -2.503290
 H        -0.196478         0.303204        -2.391151
 H         0.290537         1.468701        -4.515807
 H         1.704437         2.682719        -4.529299
 H         3.897919         0.923276        -1.914595
 H         3.092359         2.426827        -2.184624
 H         2.315989         1.957788         0.151179
