19
Iteration:  3222
 C         0.128182        -0.011184         0.345869
 C         1.205993         0.109888        -0.738780
 C         0.776632         0.039888        -2.178548
 C         1.712564         1.050528        -2.976804
 C         1.348528         1.395635        -4.381323
 O         2.301558         0.367988        -4.095914
 C         2.429344         1.878468        -1.891667
 C         2.240100         1.203332        -0.608730
 O         2.573302        -0.219989        -0.554515
 H        -0.585758        -0.771520         0.246657
 H         0.627506         0.006891         1.327435
 H        -0.501296         0.961126         0.399738
 H         0.844501        -0.954960        -2.744472
 H        -0.333636         0.271029        -2.133487
 H         0.397800         1.031294        -4.801416
 H         1.730305         2.311515        -4.875345
 H         3.407548         2.282246        -2.128464
 H         2.016609         2.943276        -1.696107
 H         2.162444         1.861515         0.351791
