19
Iteration:  1743charge 0 multiplicity 1
 C         0.203339        -0.100113         0.510570
 C         1.055823         0.252997        -0.699186
 C         0.559962         0.136276        -2.189699
 C         1.639630         1.033815        -2.940187
 C         1.554199         1.482875        -4.322995
 O         2.316565         0.378266        -4.059970
 C         2.538454         1.761476        -1.974127
 C         2.279218         1.160727        -0.659509
 O         2.468631        -0.217882        -0.705134
 H         0.602035         0.575547         1.336317
 H        -0.950788        -0.064172         0.340287
 H         0.369784        -1.052959         0.889944
 H         0.762633        -0.803134        -2.772218
 H        -0.499399         0.476613        -2.213895
 H         0.640228         1.235632        -4.925632
 H         2.041515         2.444363        -4.535869
 H         3.572199         1.683957        -2.289732
 H         2.190422         2.812364        -2.139400
 H         2.588378         1.704818         0.231599
