19
Iteration:  1034charge 0 multiplicity 1
 C         0.130598        -0.052249         0.418859
 C         1.083094         0.290298        -0.700284
 C         0.716612         0.154711        -2.209314
 C         1.687038         1.039310        -2.959605
 C         1.374333         1.368130        -4.388020
 O         2.344789         0.447469        -4.034597
 C         2.552111         1.819184        -1.953879
 C         2.306940         1.175117        -0.648616
 O         2.478014        -0.342342        -0.606034
 H         0.652748        -0.272558         1.322434
 H        -0.541366         0.797905         0.594915
 H        -0.525526        -1.032162         0.220013
 H         0.667530        -0.911945        -2.497702
 H        -0.311575         0.581652        -2.306381
 H         0.464256         1.059549        -4.851715
 H         1.718510         2.330845        -4.705577
 H         3.613628         1.967480        -2.228658
 H         2.190054         2.829681        -1.890676
 H         2.552246         1.747891         0.263735
