19
Iteration:  1873
 C         0.324737        -0.330790         0.416253
 C         1.160966         0.203664        -0.767521
 C         0.447483         0.503775        -2.137746
 C         1.611010         1.092919        -2.946128
 C         1.634890         1.274806        -4.375280
 O         2.327205         0.144899        -3.898707
 C         2.425589         1.961425        -1.990632
 C         2.148690         1.257890        -0.650138
 O         2.544701        -0.158474        -0.759197
 H         0.773548        -1.331773         0.870564
 H         0.098462         0.186804         1.442912
 H        -0.564228        -0.655070        -0.004405
 H        -0.095349        -0.404824        -2.409086
 H        -0.319709         1.260784        -2.000594
 H         0.701554         1.189912        -5.034213
 H         2.325682         2.008282        -4.819213
 H         3.492065         2.122516        -2.158977
 H         1.999564         2.950412        -1.910053
 H         2.449679         1.639425         0.340757
