19
Iteration:   848charge 0 multiplicity 1
 C        -0.101414         0.238557        -0.057652
 C         1.211518         0.227911        -0.828922
 C         1.158164        -0.263665        -2.226585
 C         1.903203         0.748524        -2.987492
 C         0.965964         1.565568        -3.776234
 O         1.964602         0.747814        -4.449301
 C         2.986684         1.321197        -2.010620
 C         2.239661         1.259343        -0.659548
 O         2.422027        -0.053885        -0.079150
 H         0.065250         0.180595         0.967917
 H        -0.496612         1.188872        -0.162729
 H        -0.815445        -0.656571        -0.310708
 H         1.715797        -1.230363        -2.173954
 H         0.210259        -0.546301        -2.742970
 H        -0.036943         1.201007        -3.724415
 H         1.181989         2.633554        -3.900141
 H         3.988147         0.761559        -2.130169
 H         3.230600         2.355265        -2.372055
 H         2.247413         2.170751        -0.045640
