19
Iteration:  1387charge 0 multiplicity 1
 C         0.054931         0.100869         0.354135
 C         1.129832         0.133325        -0.727421
 C         0.872228        -0.194911        -2.169639
 C         1.676181         0.845067        -3.047701
 C         1.127139         1.614277        -4.232667
 O         2.321738         0.743430        -4.352964
 C         2.755526         1.442946        -2.109558
 C         2.226391         1.216677        -0.627686
 O         2.473752        -0.113590        -0.156202
 H         0.346888         0.657450         1.253758
 H        -0.772739         0.568047        -0.176749
 H        -0.244346        -0.966684         0.702099
 H         1.268007        -1.176495        -2.479441
 H        -0.196945        -0.020350        -2.387109
 H         0.257861         1.250614        -4.722911
 H         1.388143         2.667086        -4.384715
 H         3.618760         0.786769        -2.316771
 H         2.969437         2.540577        -2.334219
 H         2.380275         2.043992         0.105727
