19
Iteration:   283charge 0 multiplicity 1
 C        -0.069728         0.275510         0.036423
 C         1.198212         0.139731        -0.798536
 C         1.159723        -0.381476        -2.308636
 C         1.869976         0.732278        -3.002199
 C         1.110364         1.832808        -3.692943
 O         1.885706         0.919864        -4.437775
 C         3.083726         1.145606        -2.100605
 C         2.277826         1.257419        -0.828164
 O         2.286774        -0.174623        -0.009921
 H        -0.345585        -0.460856         0.789954
 H        -0.120306         1.346875         0.586486
 H        -0.794024         0.245648        -0.671916
 H         1.642335        -1.371627        -2.382808
 H         0.092784        -0.519391        -2.577768
 H         0.047518         1.756448        -3.943395
 H         1.486651         2.834275        -3.509145
 H         3.797856         0.349725        -1.934221
 H         3.546864         2.143026        -2.359347
 H         2.162160         2.058439        -0.115647
