19
Iteration:  4859charge 0 multiplicity 1
 C         0.232576        -0.371595         0.533322
 C         1.190929         0.189194        -0.774186
 C         0.544802         0.372670        -2.122021
 C         1.587979         1.009868        -2.922911
 C         1.663360         1.452824        -4.422005
 O         2.308701         0.230660        -3.915626
 C         2.383599         1.921841        -1.976017
 C         2.164442         1.223866        -0.698856
 O         2.541665        -0.129057        -0.776021
 H         0.623537        -0.034374         1.418979
 H        -0.822302        -0.025953         0.379778
 H         0.466792        -1.460454         0.664428
 H         0.204843        -0.563495        -2.580418
 H        -0.464068         0.880093        -1.856380
 H         0.942586         1.280894        -5.245086
 H         2.228635         2.364093        -4.729082
 H         3.481004         2.041754        -2.190205
 H         1.907374         2.921592        -2.115434
 H         2.464103         1.700474         0.290269
