19
Iteration:  1836
 C         0.248506        -0.390011         0.362616
 C         1.100464         0.364286        -0.719934
 C         0.482842         0.477952        -2.118287
 C         1.554499         1.169010        -2.939916
 C         1.562467         1.191972        -4.395904
 O         2.345654         0.191150        -3.730465
 C         2.472987         2.002107        -1.961535
 C         2.318205         1.199701        -0.675080
 O         2.548208        -0.177486        -0.861770
 H         0.839026        -1.123557         0.931056
 H        -0.393244         0.220050         0.882057
 H        -0.533333        -0.916613        -0.349350
 H         0.326997        -0.434969        -2.685102
 H        -0.537764         0.944717        -1.931431
 H         0.673718         0.740988        -4.776392
 H         2.040135         1.927103        -5.061373
 H         3.576007         1.940282        -2.161133
 H         2.055594         3.051156        -1.920139
 H         2.625216         1.573310         0.309538
