19
Iteration:  2583
 C         0.104824        -0.188313         0.381235
 C         1.125548         0.254879        -0.660600
 C         0.814615        -0.035426        -2.182178
 C         1.703406         0.917249        -2.984227
 C         1.314595         1.464997        -4.352358
 O         2.241575         0.489585        -4.220686
 C         2.644547         1.701690        -2.038135
 C         2.186071         1.275310        -0.682039
 O         2.497724        -0.045555        -0.265290
 H        -0.827669         0.506622         0.017242
 H         0.107905        -1.309919         0.150034
 H         0.466572         0.137531         1.266086
 H         1.206586        -1.068298        -2.448863
 H        -0.229403         0.132845        -2.294461
 H         0.346033         1.222338        -4.880546
 H         1.804567         2.461785        -4.614637
 H         3.686867         1.597602        -2.489274
 H         2.393182         2.757289        -2.350967
 H         2.340410         2.096485         0.033686
