19
Iteration:     8charge 0 multiplicity 1
 C         0.225648        -0.168501         0.374175
 C         1.131846         0.234187        -0.689544
 C         0.532467         0.431247        -2.151741
 C         1.643147         1.123261        -2.914056
 C         1.512268         1.408351        -4.371084
 O         2.288542         0.288018        -3.918377
 C         2.571758         1.809079        -1.904424
 C         2.329013         1.064752        -0.680914
 O         2.420613        -0.334906        -0.780375
 H        -0.086449        -1.187215         0.164932
 H         0.831509        -0.005156         1.440319
 H        -0.576241         0.508301         0.411953
 H         0.174786        -0.501467        -2.691021
 H        -0.297508         1.171359        -2.194631
 H         0.612386         1.443430        -4.965245
 H         2.178180         2.178653        -4.735244
 H         3.589874         2.080630        -2.232995
 H         2.264779         2.908952        -1.833431
 H         2.456133         1.628408         0.247746
