19
Iteration:  4131
 C         0.019626         0.011882         0.393356
 C         1.184942         0.179182        -0.652838
 C         0.889631        -0.128082        -2.157259
 C         1.663170         0.978701        -3.021898
 C         1.229762         1.522519        -4.374984
 O         2.318939         0.560290        -4.181583
 C         2.552463         1.747468        -2.016608
 C         2.198164         1.175654        -0.679192
 O         2.590167        -0.178223        -0.381170
 H        -0.207027        -1.030248         0.186507
 H         0.167029         0.182439         1.441943
 H        -0.953135         0.608198         0.063069
 H         1.330628        -1.119197        -2.465398
 H        -0.265758         0.039063        -2.410786
 H         0.412605         1.129041        -4.909283
 H         1.581304         2.510259        -4.575292
 H         3.532890         1.283545        -2.033690
 H         2.468103         2.863591        -2.078011
 H         2.390090         1.896030         0.282126
