19
Iteration:   291
 C        -0.076727         0.345459        -0.002461
 C         1.197269         0.146272        -0.841817
 C         1.145250        -0.440119        -2.265157
 C         1.836823         0.691207        -3.004257
 C         1.102526         1.855393        -3.643418
 O         1.917882         0.949751        -4.421249
 C         3.051427         1.109591        -2.085561
 C         2.260046         1.161544        -0.763644
 O         2.334526        -0.098786        -0.065728
 H        -0.245869        -0.501526         0.634873
 H        -0.061316         1.321924         0.526095
 H        -1.080117         0.237257        -0.663027
 H         1.784680        -1.365317        -2.375297
 H         0.168518        -0.692502        -2.623077
 H        -0.012893         1.746803        -3.793054
 H         1.440216         2.971206        -3.650860
 H         3.926208         0.506530        -1.912186
 H         3.511512         2.044567        -2.538754
 H         2.168906         2.014652        -0.151750
