19
Iteration:  2370charge 0 multiplicity 1
 C         0.312537        -0.379634         0.366872
 C         1.173778         0.271163        -0.692259
 C         0.514307         0.417961        -2.226484
 C         1.651389         1.033000        -2.937918
 C         1.575569         1.240596        -4.404836
 O         2.350168         0.127109        -3.715019
 C         2.352090         2.059678        -1.981043
 C         2.126434         1.286717        -0.607572
 O         2.529263        -0.101328        -0.876589
 H        -0.624854         0.062222         0.414108
 H         0.252086        -1.435686         0.098770
 H         0.839543        -0.204967         1.448474
 H         0.386922        -0.603389        -2.439765
 H        -0.419280         1.012284        -2.227470
 H         0.652627         0.961694        -4.920778
 H         2.253486         1.924817        -4.950118
 H         3.413461         2.135025        -2.184614
 H         1.943750         3.080314        -1.809550
 H         2.607238         1.817068         0.218196
