19
Iteration:  4319
 C         0.281758        -0.137811         0.440362
 C         1.181067         0.066592        -0.804847
 C         0.503677         0.262098        -2.155967
 C         1.562551         1.038650        -2.976527
 C         1.630120         1.336147        -4.468700
 O         2.418810         0.317775        -3.765522
 C         2.165588         2.026238        -1.963037
 C         2.255279         1.217676        -0.640725
 O         2.598293        -0.198712        -0.792590
 H        -0.560813        -0.812054         0.276374
 H         0.939720        -0.703377         1.222296
 H        -0.088967         0.760176         0.883088
 H         0.316823        -0.676570        -2.563552
 H        -0.557270         0.641775        -1.989971
 H         0.896307         0.929892        -5.120584
 H         2.277523         2.051414        -4.886464
 H         3.189511         2.212796        -2.314508
 H         1.568505         2.895935        -1.739746
 H         2.640508         1.397341         0.375813
