19
Iteration:  3348charge 0 multiplicity 1
 C         0.176859        -0.421444         0.327791
 C         1.159344         0.307051        -0.720265
 C         0.514160         0.405194        -2.058037
 C         1.562403         1.049307        -2.954914
 C         1.524506         1.196577        -4.425894
 O         2.395759         0.269897        -3.783342
 C         2.393530         1.991397        -1.980074
 C         2.347923         1.287895        -0.687754
 O         2.544298        -0.122377        -0.770849
 H        -0.054864        -1.541826         0.025018
 H         0.633393        -0.340542         1.293491
 H        -0.802802         0.084125         0.285408
 H         0.336098        -0.595811        -2.443741
 H        -0.328204         1.238367        -1.996690
 H         0.709914         0.714091        -4.989935
 H         2.041336         2.031338        -4.886064
 H         3.445872         1.920516        -2.302370
 H         1.917595         2.952893        -1.986398
 H         2.770533         1.706372         0.244184
