19
Iteration:  1814charge 0 multiplicity 1
 C         0.243804        -0.250460         0.378792
 C         1.177191         0.198817        -0.782568
 C         0.549942         0.422545        -2.098863
 C         1.584130         1.092257        -2.928399
 C         1.521949         1.181659        -4.352463
 O         2.384963         0.271182        -3.760072
 C         2.439042         2.009799        -1.943507
 C         2.245122         1.238243        -0.630070
 O         2.471853        -0.209149        -0.948077
 H         0.850163        -0.505372         1.252577
 H        -0.490920         0.475823         0.532642
 H        -0.432331        -1.199839         0.088336
 H         0.214238        -0.516369        -2.537386
 H        -0.308585         1.145505        -1.979639
 H         0.653147         0.827888        -4.857376
 H         2.171403         1.900787        -4.854719
 H         3.540379         2.030879        -2.176654
 H         2.049674         3.069938        -1.793962
 H         2.760496         1.381089         0.319966
