19
Iteration:  1615
 C         0.069446         0.166272         0.288104
 C         1.092897         0.148806        -0.753809
 C         0.979434        -0.195255        -2.212758
 C         1.807145         0.868155        -2.981886
 C         1.178372         1.583553        -4.042661
 O         2.206658         0.620969        -4.435666
 C         2.724427         1.574235        -2.001883
 C         2.224981         1.222615        -0.674077
 O         2.407267        -0.142881        -0.280467
 H         0.625375         0.134477         1.129842
 H        -0.468390         1.096038         0.330840
 H        -0.559476        -0.820837         0.210651
 H         1.286416        -1.276045        -2.173681
 H        -0.086397        -0.287303        -2.470431
 H         0.201120         1.123033        -4.244474
 H         1.247152         2.642302        -4.189446
 H         3.665776         1.036788        -2.278496
 H         2.872778         2.711392        -2.109905
 H         2.319011         1.896024         0.176502
