19
Iteration:  3820charge 0 multiplicity 1
 C         0.317878        -0.205563         0.500698
 C         1.113408         0.178400        -0.801762
 C         0.488407         0.377290        -2.165413
 C         1.663152         1.041249        -2.940290
 C         1.490568         1.203568        -4.446648
 O         2.485315         0.264706        -3.855511
 C         2.342616         2.052004        -1.830032
 C         2.162693         1.180866        -0.618617
 O         2.525867        -0.144273        -0.877624
 H        -0.497517        -0.997506         0.210809
 H         1.067597        -0.867750         1.127781
 H        -0.237496         0.629332         0.914882
 H         0.373966        -0.715811        -2.612928
 H        -0.367843         1.110858        -2.393244
 H         0.693665         0.613807        -4.969360
 H         1.951435         2.046948        -5.021164
 H         3.440432         2.009314        -2.032133
 H         1.867419         3.093741        -1.859134
 H         2.439879         1.535488         0.369324
