19
Iteration:  4874charge 0 multiplicity 1
 C         0.346422        -0.323786         0.443138
 C         1.098340         0.197642        -0.659897
 C         0.437041         0.281090        -2.131734
 C         1.566543         1.045764        -3.036161
 C         1.660271         1.486410        -4.384471
 O         2.360541         0.264127        -3.926731
 C         2.342183         1.869028        -2.053096
 C         2.167389         1.233384        -0.647656
 O         2.590992        -0.178186        -0.685020
 H         0.863850        -0.051190         1.475354
 H        -0.688822         0.093355         0.499911
 H         0.100426        -1.366417         0.317736
 H         0.148388        -0.682376        -2.597372
 H        -0.297377         1.048709        -2.195367
 H         0.804101         1.373947        -5.028367
 H         2.396529         2.263144        -4.563096
 H         3.363073         1.854180        -2.391636
 H         2.017416         3.009954        -1.975209
 H         2.500496         1.918785         0.265772
