19
Iteration:  3792
 C         0.297666        -0.213047         0.465981
 C         1.110717         0.215472        -0.751383
 C         0.531629         0.255019        -2.089421
 C         1.566353         1.077776        -2.965305
 C         1.587021         1.342206        -4.451818
 O         2.462853         0.366422        -3.815067
 C         2.306970         1.978084        -2.034574
 C         2.240988         1.141550        -0.730827
 O         2.461882        -0.253786        -0.701517
 H        -0.306881        -1.071200         0.423682
 H         1.150230        -0.327259         1.147565
 H        -0.420311         0.541072         0.841520
 H         0.520262        -0.720208        -2.423201
 H        -0.433176         0.662828        -2.328204
 H         0.808346         0.945475        -5.080758
 H         2.138131         2.156009        -4.906805
 H         3.302327         2.068645        -2.454240
 H         1.926476         3.001981        -1.983008
 H         2.672117         1.691310         0.102866
