19
Iteration:  1969charge 0 multiplicity 1
 C         0.121782         0.017406         0.351473
 C         1.134411         0.101386        -0.675589
 C         0.782962         0.093340        -2.128636
 C         1.684419         1.018789        -2.949858
 C         1.294532         1.352698        -4.362035
 O         2.449721         0.419899        -4.172461
 C         2.417039         1.926315        -1.945225
 C         2.195683         1.158992        -0.589823
 O         2.583654        -0.258927        -0.562412
 H        -0.913011        -0.400496         0.039067
 H         0.439377        -0.610962         1.132613
 H        -0.034222         1.009503         0.738071
 H         0.617561        -0.860023        -2.627431
 H        -0.270453         0.531147        -2.268700
 H         0.306768         1.077903        -4.786308
 H         1.611554         2.338078        -4.624492
 H         3.469785         1.867459        -2.383536
 H         2.163026         3.033036        -1.845153
 H         2.367990         1.722600         0.360037
