19
Iteration:  4947
 C         0.188886        -0.069450         0.273196
 C         1.211687         0.220580        -0.739322
 C         0.710907         0.146048        -2.119042
 C         1.650733         0.950300        -2.998027
 C         1.273246         1.369861        -4.305552
 O         2.439522         0.497596        -3.996279
 C         2.368631         1.888302        -1.941864
 C         2.271502         1.119693        -0.612190
 O         2.566159        -0.256956        -0.610931
 H         0.474898        -0.367846         1.235233
 H        -0.471110         0.842310         0.378402
 H        -0.535230        -0.820791        -0.111953
 H         0.686980        -0.924242        -2.426268
 H        -0.346739         0.620129        -2.167585
 H         0.419715         0.855741        -4.760404
 H         1.529987         2.290541        -4.835150
 H         3.380710         1.930275        -2.352199
 H         2.054613         2.914107        -1.969876
 H         2.470728         1.622873         0.422828
