19
Iteration:  1865
 C         0.377570        -0.418375         0.332283
 C         1.142094         0.277090        -0.788431
 C         0.451265         0.525189        -2.086739
 C         1.584835         1.048385        -2.986685
 C         1.611374         1.313569        -4.392413
 O         2.325616         0.129355        -3.823438
 C         2.426856         1.986546        -1.999856
 C         2.258458         1.256363        -0.655915
 O         2.465391        -0.173876        -0.705618
 H         0.804213        -1.235639         0.821984
 H         0.125701         0.471491         1.076191
 H        -0.611697        -0.754723        -0.065447
 H         0.064346        -0.361334        -2.711979
 H        -0.277625         1.254062        -1.733449
 H         0.730581         0.875403        -4.863004
 H         2.228559         2.095653        -4.885225
 H         3.491637         2.203966        -2.146888
 H         1.956536         2.984189        -2.063883
 H         2.452442         1.625773         0.352285
