19
Iteration:  2867charge 0 multiplicity 1
 C         0.325597        -0.192979         0.520636
 C         1.104825         0.210869        -0.776177
 C         0.398647         0.320239        -2.167013
 C         1.609104         1.096408        -2.990131
 C         1.618861         1.464908        -4.448025
 O         2.379508         0.268328        -3.908772
 C         2.410344         1.878834        -2.012095
 C         2.199517         1.155431        -0.657701
 O         2.537778        -0.297966        -0.692161
 H         0.465973         0.592530         1.388910
 H        -0.786035        -0.251400         0.415257
 H         0.685797        -1.042228         0.948350
 H         0.232780        -0.686287        -2.584401
 H        -0.511249         1.041781        -2.133885
 H         0.672913         1.311015        -4.970087
 H         2.273899         2.254922        -4.800850
 H         3.434308         1.899337        -2.433556
 H         2.248622         2.839277        -1.712378
 H         2.454304         1.619735         0.241148
