19
Iteration:  1669charge 0 multiplicity 1
 C         0.090363         0.017181         0.277378
 C         1.187905         0.242905        -0.670174
 C         0.893462        -0.021205        -2.184277
 C         1.654586         0.932233        -2.975848
 C         1.291449         1.561952        -4.305587
 O         2.178511         0.557868        -4.235446
 C         2.706479         1.571104        -2.017338
 C         2.215395         1.219756        -0.647509
 O         2.493037        -0.184105        -0.286121
 H         0.493212        -0.369146         1.184873
 H        -0.678231         0.861682         0.319574
 H        -0.565253        -0.909076        -0.140337
 H         1.184064        -1.128953        -2.271188
 H        -0.216114         0.022077        -2.323261
 H         0.256421         1.302769        -4.652060
 H         1.661209         2.522592        -4.650006
 H         3.675377         1.208840        -2.429917
 H         2.433966         2.674963        -2.225069
 H         2.385680         1.872629         0.200855
