19
Iteration:  3203charge 0 multiplicity 1
 C         0.068621         0.003319         0.236130
 C         1.190250         0.223639        -0.692326
 C         0.770880         0.062600        -2.248972
 C         1.649869         0.987043        -2.956437
 C         1.270848         1.376069        -4.285938
 O         2.304260         0.390794        -4.078262
 C         2.456488         1.931210        -1.959593
 C         2.271920         1.126765        -0.572340
 O         2.673519        -0.215920        -0.485396
 H        -0.660201        -0.716417        -0.290956
 H         0.495024        -0.306597         1.262264
 H        -0.461009         0.850468         0.312857
 H         1.012773        -1.016694        -2.450766
 H        -0.351904         0.291429        -2.314499
 H         0.321552         1.041079        -4.698809
 H         1.684142         2.297310        -4.737846
 H         3.543581         1.946986        -2.180873
 H         2.019431         2.879292        -2.064431
 H         2.464927         1.723564         0.321791
