19
Iteration:    47charge 0 multiplicity 1
 C         0.312920        -0.397415         0.315556
 C         1.136570         0.308847        -0.783053
 C         0.400285         0.763180        -2.035193
 C         1.573465         1.212025        -2.912862
 C         1.666796         1.202805        -4.362339
 O         2.254000         0.138256        -3.617401
 C         2.524605         1.938683        -1.923287
 C         2.354662         1.106524        -0.656599
 O         2.420180        -0.292907        -1.070089
 H         0.369645        -1.511445         0.193306
 H         0.462736        -0.126756         1.273955
 H        -0.822375        -0.173775         0.039261
 H        -0.239392         0.081747        -2.549233
 H        -0.203813         1.659331        -1.805565
 H         0.790634         1.081451        -5.080552
 H         2.501696         1.814185        -4.792816
 H         3.594238         1.978109        -2.308124
 H         2.215945         2.948257        -1.628568
 H         2.757400         1.417550         0.332519
