19
Iteration:  2186
 C         0.165776        -0.161630         0.367672
 C         1.041838         0.294656        -0.766076
 C         0.843525        -0.087093        -2.210619
 C         1.724080         0.950952        -2.996516
 C         1.295368         1.544537        -4.260579
 O         2.286495         0.443813        -4.146516
 C         2.639028         1.732709        -2.033233
 C         2.206610         1.315693        -0.703770
 O         2.438756        -0.116730        -0.339258
 H        -0.916041        -0.204223        -0.053765
 H         0.388451        -1.157012         0.571962
 H         0.124601         0.452399         1.394568
 H         1.108772        -1.077440        -2.453243
 H        -0.227429        -0.095610        -2.499885
 H         0.306314         1.370241        -4.636362
 H         1.804407         2.393208        -4.692236
 H         3.682974         1.502132        -2.112264
 H         2.511159         2.783031        -2.265929
 H         2.465279         2.047375         0.142947
