19
Iteration:  4177
 C         0.153069        -0.132523         0.390612
 C         1.036255         0.274395        -0.747332
 C         0.828756         0.005217        -2.257318
 C         1.794249         0.895397        -3.013654
 C         1.259889         1.511430        -4.218537
 O         2.319633         0.486419        -4.212255
 C         2.617157         1.790703        -2.019529
 C         2.136480         1.226072        -0.626697
 O         2.508816        -0.190279        -0.407003
 H         0.503594        -1.036955         0.880791
 H         0.350999         0.745694         1.098194
 H        -0.921665        -0.126304         0.082022
 H         0.916152        -1.048310        -2.344828
 H        -0.327597         0.208671        -2.374823
 H         0.352062         1.119888        -4.652635
 H         1.631181         2.473926        -4.546433
 H         3.722978         1.599261        -2.189024
 H         2.200341         2.822321        -2.038746
 H         2.259230         1.975074         0.281438
