19
Iteration:  3032
 C         0.213918        -0.091893         0.506261
 C         1.145346         0.207460        -0.710967
 C         0.628525         0.176363        -2.173823
 C         1.601687         1.005194        -2.955854
 C         1.487631         1.418936        -4.377925
 O         2.372801         0.422256        -4.032228
 C         2.449560         1.788461        -1.990051
 C         2.217087         1.175306        -0.700237
 O         2.488466        -0.231689        -0.651275
 H         0.809214        -0.753048         1.133535
 H        -0.073019         0.795794         1.096281
 H        -0.642753        -0.645750         0.137935
 H         0.496702        -0.848643        -2.569724
 H        -0.317093         0.756011        -2.258453
 H         0.699914         1.037527        -5.014422
 H         1.877059         2.410926        -4.677403
 H         3.558105         1.831219        -2.154258
 H         2.401488         2.912652        -1.801228
 H         2.335051         1.611904         0.252713
