19
Iteration:  1677
 C         0.025910        -0.025861         0.247317
 C         1.207817         0.225370        -0.677824
 C         0.821747         0.002348        -2.138721
 C         1.693224         0.983564        -3.020833
 C         1.235082         1.585699        -4.356813
 O         2.199833         0.484405        -4.260160
 C         2.705248         1.635428        -2.050321
 C         2.259195         1.222029        -0.550908
 O         2.522684        -0.211747        -0.270114
 H         0.426524        -0.296143         1.354675
 H        -0.823345         0.755343         0.424654
 H        -0.425802        -0.929373        -0.039532
 H         1.127372        -1.054816        -2.324483
 H        -0.263874         0.161300        -2.317303
 H         0.330769         1.159853        -4.829640
 H         1.512313         2.597557        -4.725591
 H         3.740979         1.349952        -2.251272
 H         2.781847         2.745595        -2.072908
 H         2.503843         1.926959         0.227969
