19
Iteration:  3338
 C         0.221875        -0.364663         0.241267
 C         1.180290         0.256951        -0.669198
 C         0.547597         0.393058        -2.058049
 C         1.584440         1.080083        -2.902188
 C         1.539516         1.209531        -4.432653
 O         2.333598         0.252645        -3.799251
 C         2.406238         1.962703        -2.035387
 C         2.319531         1.257901        -0.639076
 O         2.576808        -0.131703        -0.738744
 H         0.144141        -1.518806         0.070924
 H         0.283933        -0.219268         1.297435
 H        -0.843579         0.101967         0.021587
 H         0.019358        -0.425136        -2.505718
 H        -0.482180         0.971944        -1.922566
 H         0.681905         0.788105        -4.985218
 H         2.005766         2.021133        -4.985825
 H         3.385155         2.305477        -2.346431
 H         1.966436         2.972132        -1.999907
 H         2.539601         1.837091         0.295453
