19
Iteration:  2929
 C         0.259408        -0.400885         0.279725
 C         1.118066         0.361063        -0.682443
 C         0.490585         0.543946        -2.094239
 C         1.619686         1.132660        -2.926198
 C         1.475436         1.161896        -4.412194
 O         2.388606         0.239133        -3.772924
 C         2.508857         1.964637        -1.930064
 C         2.375789         1.192633        -0.644806
 O         2.419481        -0.211348        -0.862807
 H         0.223342         0.262238         1.191471
 H        -0.757720        -0.583918        -0.105398
 H         0.682966        -1.439793         0.460481
 H         0.115219        -0.436653        -2.361579
 H        -0.454213         1.071239        -1.968875
 H         0.692850         0.706808        -5.046209
 H         1.949521         2.064580        -4.814871
 H         3.514185         2.086216        -2.505950
 H         2.040976         3.078284        -1.673268
 H         2.741534         1.593171         0.301712
