19
Iteration:  4631charge 0 multiplicity 1
 C         0.171952        -0.101959         0.409242
 C         1.113824         0.155989        -0.731036
 C         0.749727        -0.127810        -2.207414
 C         1.634524         0.935421        -2.950743
 C         1.358877         1.551348        -4.322333
 O         2.335210         0.528701        -4.176242
 C         2.528293         1.793765        -2.014092
 C         2.208698         1.232318        -0.690782
 O         2.534223        -0.126596        -0.406271
 H         0.372166        -0.906556         1.044809
 H         0.035895         0.849752         0.986539
 H        -0.883403        -0.314985        -0.012829
 H         1.313249        -1.065375        -2.327238
 H        -0.323984        -0.150824        -2.339667
 H         0.510570         1.343201        -4.963301
 H         1.732563         2.506933        -4.552821
 H         3.539324         1.658568        -2.189635
 H         2.183562         2.820216        -2.071887
 H         2.271265         1.878681         0.213927
