19
Iteration:  4101
 C         0.145331        -0.012173         0.257363
 C         1.110323         0.263045        -0.771129
 C         0.939315        -0.104925        -2.230436
 C         1.779854         0.878818        -2.960109
 C         1.237049         1.498379        -4.147499
 O         2.238087         0.434931        -4.219337
 C         2.554522         1.803540        -2.001473
 C         2.233439         1.261801        -0.643359
 O         2.443651        -0.138258        -0.376405
 H        -0.383205        -0.887410        -0.126282
 H         0.657748        -0.532134         1.094503
 H        -0.497908         0.847120         0.539863
 H         1.220745        -1.110624        -2.368117
 H        -0.187533        -0.118926        -2.494632
 H         0.284553         1.305258        -4.658623
 H         1.617254         2.520743        -4.336028
 H         3.697565         1.776806        -2.005751
 H         2.153147         2.862560        -2.073166
 H         2.380560         1.849381         0.300801
