19
Iteration:   721charge 0 multiplicity 1
 C        -0.022339         0.170158         0.275721
 C         1.149968         0.227690        -0.703277
 C         0.905882        -0.147352        -2.162899
 C         1.681542         0.972565        -2.926090
 C         1.244960         1.613525        -4.196023
 O         2.234574         0.584961        -4.323624
 C         2.672039         1.572599        -2.032987
 C         2.310182         1.125581        -0.627816
 O         2.491814        -0.302768        -0.368204
 H        -0.343822         1.231329         0.508165
 H        -0.970474        -0.448742        -0.018215
 H         0.293250        -0.149543         1.250831
 H         1.390637        -1.104968        -2.345089
 H        -0.154243        -0.101130        -2.397815
 H         0.249999         1.423731        -4.684169
 H         1.601395         2.673400        -4.433521
 H         3.679010         1.354807        -2.267533
 H         2.773246         2.679149        -1.900143
 H         2.401528         1.824713         0.216378
