19
Iteration:  4307
 C         0.285425        -0.153854         0.389538
 C         1.172244         0.210025        -0.751492
 C         0.548596         0.155916        -2.201367
 C         1.483180         1.116231        -2.935291
 C         1.585654         1.308194        -4.384309
 O         2.441534         0.342176        -3.749431
 C         2.269110         1.948993        -1.971254
 C         2.238702         1.173119        -0.715992
 O         2.569400        -0.232122        -0.775682
 H        -0.580122        -0.731616         0.113968
 H         0.897791        -0.695777         1.168851
 H        -0.039566         0.794755         0.877542
 H         0.605413        -0.786982        -2.698132
 H        -0.464462         0.586743        -2.154108
 H         0.758347         0.950809        -4.956248
 H         1.995250         2.248633        -4.649042
 H         3.230694         2.241462        -2.363125
 H         1.773574         2.923978        -1.819929
 H         2.508643         1.915627         0.107809
