19
Iteration:  3405charge 0 multiplicity 1
 C         0.370555        -0.162543         0.602123
 C         1.102682         0.173851        -0.785490
 C         0.484641         0.320090        -2.228462
 C         1.575658         1.073078        -2.937072
 C         1.702293         1.322728        -4.412635
 O         2.425314         0.263037        -3.841191
 C         2.241419         1.963025        -1.947902
 C         2.159994         1.157884        -0.695529
 O         2.539283        -0.221938        -0.844459
 H        -0.333314        -0.961045         0.362043
 H         0.903993        -0.574779         1.428919
 H         0.091248         0.948164         0.908693
 H         0.308423        -0.669960        -2.661751
 H        -0.646792         0.854571        -2.158356
 H         0.905382         0.999701        -5.067915
 H         2.242686         2.218613        -4.779471
 H         3.270096         2.133109        -2.261594
 H         1.713822         2.935455        -1.916761
 H         2.318107         1.592014         0.353497
