19
Iteration:   943charge 0 multiplicity 1
 C        -0.021005         0.024967         0.295014
 C         1.085588         0.312167        -0.753631
 C         0.987110        -0.174031        -2.199544
 C         1.794047         0.839131        -3.027119
 C         1.109054         1.669879        -4.085372
 O         2.210665         0.601468        -4.325427
 C         2.864513         1.526617        -2.094287
 C         2.248896         1.202858        -0.679982
 O         2.400530        -0.153700        -0.242114
 H         0.150512         0.775582         1.216289
 H        -1.006530         0.327344        -0.017833
 H         0.083991        -0.964427         0.686611
 H         1.207894        -1.239523        -2.259450
 H        -0.030017        -0.104373        -2.590353
 H         0.097792         1.454131        -4.386278
 H         1.472948         2.680033        -4.261125
 H         3.784705         0.948869        -2.237130
 H         3.258995         2.497842        -2.254777
 H         2.227706         1.965988         0.104246
