19
Iteration:  3608charge 0 multiplicity 1
 C         0.015985         0.024245         0.370213
 C         1.131844         0.243704        -0.664324
 C         0.822469        -0.067180        -2.061225
 C         1.663707         0.947840        -3.023510
 C         1.194526         1.403407        -4.354432
 O         2.476635         0.646582        -4.211825
 C         2.515608         1.684535        -2.028566
 C         2.296612         1.187540        -0.600572
 O         2.530362        -0.212922        -0.480911
 H        -0.714673        -0.644533         0.044192
 H         0.285026        -0.192708         1.372946
 H        -0.658749         0.834129         0.158588
 H         1.127991        -1.178032        -2.202132
 H        -0.292837         0.138315        -2.146487
 H         0.382474         0.862514        -4.832183
 H         1.484787         2.369903        -4.783593
 H         3.609787         1.548754        -2.244153
 H         2.249530         2.734436        -1.856210
 H         2.585500         1.824483         0.301769
