19
Iteration:  2456charge 0 multiplicity 1
 C         0.254303        -0.077097         0.386065
 C         1.121193         0.183059        -0.761437
 C         0.636682         0.153675        -2.187666
 C         1.662552         0.953120        -2.972436
 C         1.463587         1.335735        -4.274973
 O         2.422812         0.283221        -3.905250
 C         2.346620         1.920015        -1.980648
 C         2.180510         1.252807        -0.642550
 O         2.535708        -0.125707        -0.747202
 H        -0.702252         0.304614         0.313449
 H         0.027340        -1.210370         0.462449
 H         0.883749         0.219435         1.357621
 H         0.524828        -0.891494        -2.545430
 H        -0.381354         0.662289        -2.277555
 H         0.571020         1.027105        -4.791902
 H         1.997920         2.161995        -4.744608
 H         3.371478         2.127244        -2.273280
 H         1.871807         2.898998        -1.751431
 H         2.369487         1.839070         0.272766
