19
Iteration:  4296
 C         0.296789        -0.170300         0.414896
 C         1.084384         0.263255        -0.801494
 C         0.630012         0.145571        -2.168493
 C         1.491960         1.084564        -2.899939
 C         1.475943         1.312332        -4.295679
 O         2.471566         0.368793        -3.831358
 C         2.380257         1.998902        -2.026136
 C         2.253708         1.200448        -0.733485
 O         2.515945        -0.221016        -0.739970
 H        -0.483233        -0.735766        -0.062662
 H         0.796295        -0.813671         1.202605
 H        -0.276777         0.685167         0.876553
 H         0.703702        -0.879626        -2.479865
 H        -0.454918         0.401173        -2.350726
 H         0.884512         0.784936        -4.992282
 H         1.932521         2.156635        -4.730931
 H         3.356395         2.016841        -2.466487
 H         1.851826         2.929046        -1.773551
 H         2.387850         1.396734         0.425470
