19
Iteration:   710
 C         0.016264         0.160963         0.393757
 C         1.134412         0.196807        -0.734487
 C         0.853404        -0.069918        -2.278779
 C         1.629995         0.938458        -3.052291
 C         1.276430         1.690222        -4.199569
 O         2.266534         0.499355        -4.259287
 C         2.671733         1.687853        -1.985566
 C         2.310122         1.120181        -0.616879
 O         2.514970        -0.341130        -0.311867
 H        -0.463171         1.193663         0.352082
 H        -0.827226        -0.650252         0.147667
 H         0.444575        -0.083527         1.343196
 H         1.156151        -1.029455        -2.691365
 H        -0.210669        -0.104551        -2.525260
 H         0.361763         1.272634        -4.675729
 H         1.646594         2.737467        -4.483780
 H         3.562406         1.247255        -2.296026
 H         2.455087         2.762496        -2.228152
 H         2.514450         1.743127         0.267624
