19
Iteration:  4865
 C         0.263108        -0.371138         0.512823
 C         1.117939         0.195454        -0.722193
 C         0.507955         0.343483        -2.135551
 C         1.578560         1.029892        -3.000822
 C         1.656725         1.505871        -4.404007
 O         2.344277         0.224086        -3.912767
 C         2.355531         1.884346        -2.018306
 C         2.153385         1.279726        -0.694346
 O         2.599385        -0.168091        -0.735282
 H         0.733790         0.017305         1.512335
 H        -0.728676         0.037360         0.443149
 H         0.271831        -1.463576         0.555038
 H         0.104162        -0.592466        -2.544268
 H        -0.383019         0.869046        -1.840491
 H         0.871416         1.320267        -5.143428
 H         2.378758         2.299970        -4.625751
 H         3.427420         1.913693        -2.208503
 H         1.933197         2.901291        -2.048258
 H         2.545223         1.703887         0.195033
