19
Iteration:  1641
 C         0.027064         0.145242         0.394426
 C         1.068474         0.151483        -0.741612
 C         0.912607        -0.232976        -2.282812
 C         1.768562         0.780699        -3.015289
 C         1.207921         1.686492        -4.068806
 O         2.229354         0.538140        -4.300074
 C         2.776937         1.637055        -2.009447
 C         2.124325         1.291385        -0.688550
 O         2.519556        -0.139524        -0.384209
 H         0.719591        -0.213345         1.278158
 H        -0.396273         1.108017         0.611022
 H        -0.644663        -0.657162         0.187033
 H         1.184261        -1.252230        -2.281615
 H        -0.121960        -0.287115        -2.558324
 H         0.304659         1.365039        -4.552109
 H         1.512557         2.751757        -4.152881
 H         3.768554         1.248700        -2.249017
 H         2.676763         2.612143        -2.344826
 H         2.230947         1.757222         0.333060
