19
Iteration:  3430
 C         0.224895        -0.130120         0.403068
 C         1.177719         0.253837        -0.717962
 C         0.554605         0.178367        -2.084031
 C         1.523503         1.014795        -2.983872
 C         1.585462         1.436193        -4.421846
 O         2.444695         0.270516        -3.804819
 C         2.249667         1.954680        -2.005886
 C         2.337437         1.163207        -0.705270
 O         2.515764        -0.261603        -0.771223
 H        -0.294885        -0.930091         0.034727
 H         0.742826        -0.491266         1.386968
 H        -0.225182         0.936032         0.728051
 H         0.166655        -0.821958        -2.459534
 H        -0.441118         0.773361        -1.977088
 H         0.939663         1.088491        -5.239935
 H         2.094370         2.390410        -4.616967
 H         3.249418         2.277881        -2.361797
 H         1.701177         2.936775        -1.920819
 H         2.715215         1.554842         0.214538
