19
Iteration:  2371charge 0 multiplicity 1
 C         0.323871        -0.379361         0.356842
 C         1.172437         0.267004        -0.697039
 C         0.511829         0.419608        -2.218270
 C         1.651717         1.037244        -2.939748
 C         1.572966         1.242761        -4.405464
 O         2.353675         0.118715        -3.718348
 C         2.349585         2.052415        -1.975174
 C         2.123477         1.289161        -0.600930
 O         2.527457        -0.095973        -0.876178
 H        -0.642935         0.063353         0.400833
 H         0.291682        -1.390652         0.116341
 H         0.821827        -0.206078         1.418422
 H         0.350686        -0.585428        -2.430193
 H        -0.415557         1.023857        -2.268081
 H         0.645586         0.951600        -4.889599
 H         2.247465         1.930735        -4.938202
 H         3.417388         2.114413        -2.172817
 H         1.960202         3.071599        -1.793434
 H         2.604286         1.831955         0.209122
