19
Iteration:  3987
 C         0.158943        -0.034782         0.321578
 C         1.185793         0.191669        -0.782058
 C         0.741197         0.015822        -2.207123
 C         1.678677         0.976493        -2.942551
 C         1.332868         1.427482        -4.283162
 O         2.320620         0.384771        -4.132761
 C         2.491294         1.869231        -1.925364
 C         2.236546         1.205191        -0.593365
 O         2.553502        -0.187369        -0.533177
 H        -0.034405        -1.074288         0.631502
 H         0.360810         0.391329         1.338395
 H        -0.763590         0.485534         0.042948
 H         0.774287        -1.021354        -2.608239
 H        -0.259277         0.444932        -2.270099
 H         0.407976         1.259395        -4.822232
 H         1.761678         2.337475        -4.651283
 H         3.542478         1.852589        -2.061661
 H         1.969072         2.843124        -1.921203
 H         2.209629         1.823584         0.300624
