19
Iteration:  4031charge 0 multiplicity 1
 C         0.170567        -0.143163         0.376014
 C         1.082386         0.262052        -0.741226
 C         0.801177        -0.055188        -2.184525
 C         1.644121         0.937144        -2.970532
 C         1.316994         1.489858        -4.330714
 O         2.318612         0.481444        -4.169070
 C         2.614055         1.735444        -2.022382
 C         2.226979         1.271584        -0.683544
 O         2.468467        -0.088397        -0.341809
 H        -0.424372        -0.988386         0.009807
 H         0.678695        -0.556296         1.224305
 H        -0.516192         0.702327         0.650228
 H         1.048698        -1.078375        -2.550298
 H        -0.231551         0.051298        -2.477176
 H         0.425120         1.198162        -4.845141
 H         1.527897         2.515150        -4.511366
 H         3.544768         1.443645        -2.429816
 H         2.475625         2.839219        -2.000692
 H         2.452727         1.937650         0.173806
