19
Iteration:  4358charge 0 multiplicity 1
 C         0.424202        -0.361559         0.428812
 C         1.063219         0.253470        -0.766774
 C         0.459568         0.397534        -2.171879
 C         1.617634         1.037124        -2.928504
 C         1.606793         1.269249        -4.345858
 O         2.470968         0.221349        -3.754886
 C         2.276368         2.046702        -1.984129
 C         2.225271         1.210857        -0.639582
 O         2.454083        -0.152717        -0.861970
 H         0.186955        -1.416795         0.263772
 H         1.071811        -0.317422         1.260906
 H        -0.507154         0.244417         0.775038
 H         0.185921        -0.646655        -2.650532
 H        -0.362595         1.118670        -2.187938
 H         0.803975         0.866356        -5.053879
 H         2.116083         2.044088        -5.044379
 H         3.215428         2.375620        -2.421717
 H         1.684451         3.012785        -2.134781
 H         2.579770         1.694991         0.343928
