19
Iteration:  1880
 C         0.288347        -0.312376         0.475784
 C         1.126014         0.189076        -0.712104
 C         0.471443         0.455405        -2.148217
 C         1.637737         1.097539        -2.927884
 C         1.642827         1.278962        -4.415850
 O         2.314014         0.159293        -3.918733
 C         2.406674         1.939257        -1.943920
 C         2.140710         1.254169        -0.634280
 O         2.589656        -0.148841        -0.809834
 H         0.840692        -1.259914         0.653102
 H         0.196830         0.285859         1.296861
 H        -0.769909        -0.587668         0.103096
 H        -0.048653        -0.403046        -2.546491
 H        -0.319959         1.286988        -2.100007
 H         0.761315         1.230537        -5.035145
 H         2.328451         2.061598        -4.728084
 H         3.465742         1.904377        -2.294527
 H         1.957902         2.983729        -1.897581
 H         2.416694         1.817329         0.263634
