19
Iteration:  2765
 C         0.113913        -0.125723         0.403020
 C         1.137914         0.295945        -0.685751
 C         0.752673        -0.006936        -2.231697
 C         1.643417         0.968043        -2.984956
 C         1.376993         1.578474        -4.352552
 O         2.282588         0.437302        -4.221865
 C         2.514901         1.668669        -2.005789
 C         2.316848         1.214385        -0.628768
 O         2.516590        -0.151905        -0.376183
 H         0.643756        -0.674542         1.228785
 H        -0.305292         0.704349         0.975783
 H        -0.850783        -0.629026        -0.024148
 H         0.864245        -1.091388        -2.519914
 H        -0.402319         0.328725        -2.190029
 H         0.415330         1.475005        -4.878703
 H         1.880232         2.500247        -4.732009
 H         3.604413         1.542001        -2.301954
 H         2.412315         2.731024        -2.128496
 H         2.522938         1.753264         0.358919
