19
Iteration:  4295
 C         0.296551        -0.172308         0.414218
 C         1.077593         0.261066        -0.799931
 C         0.629820         0.150612        -2.167321
 C         1.504697         1.076819        -2.897215
 C         1.467197         1.310246        -4.292650
 O         2.473131         0.372831        -3.838987
 C         2.386654         2.000602        -2.032079
 C         2.257546         1.205282        -0.728401
 O         2.509546        -0.218992        -0.738010
 H        -0.475826        -0.766448        -0.049494
 H         0.773458        -0.806569         1.169136
 H        -0.307825         0.696086         0.900790
 H         0.715414        -0.913093        -2.466955
 H        -0.421043         0.359877        -2.340164
 H         0.870736         0.794274        -5.012758
 H         1.912352         2.164936        -4.765104
 H         3.350850         2.006790        -2.459073
 H         1.876670         2.964459        -1.767918
 H         2.396665         1.374149         0.446829
