19
Iteration:  3849charge 0 multiplicity 1
 C         0.308611        -0.333409         0.354497
 C         1.138432         0.201531        -0.784239
 C         0.505845         0.406784        -2.149381
 C         1.618596         1.073667        -2.922488
 C         1.535649         1.248137        -4.333906
 O         2.402474         0.198587        -3.761810
 C         2.331836         2.020891        -2.000712
 C         2.288074         1.293906        -0.699147
 O         2.506976        -0.156491        -0.763580
 H        -0.271289        -1.010961        -0.229480
 H         0.819842        -0.955003         0.959012
 H        -0.327597         0.404587         0.938131
 H         0.363793        -0.567687        -2.598584
 H        -0.311304         1.055604        -2.192656
 H         0.693811         0.826008        -4.879361
 H         2.032517         2.068831        -4.841509
 H         3.344568         2.220505        -2.363506
 H         1.730427         2.909574        -1.893944
 H         2.504197         1.753115         0.319297
