19
Iteration:  1985charge 0 multiplicity 1
 C         0.130423        -0.028065         0.352131
 C         1.206598         0.204096        -0.786377
 C         0.748849         0.035132        -2.242456
 C         1.705171         0.954460        -2.975346
 C         1.304060         1.435823        -4.246168
 O         2.332178         0.451079        -4.056817
 C         2.502993         1.817829        -1.981359
 C         2.239902         1.210637        -0.673001
 O         2.519416        -0.210358        -0.482035
 H        -0.775306        -0.270753        -0.134423
 H         0.424705        -0.930478         1.070194
 H        -0.091396         0.919841         0.901502
 H         0.921575        -1.055557        -2.482855
 H        -0.274250         0.334768        -2.308165
 H         0.473590         0.920964        -4.729122
 H         1.596408         2.413014        -4.709831
 H         3.550882         2.029984        -2.158849
 H         1.986748         2.763029        -2.043899
 H         2.362251         1.782444         0.231498
