19
Iteration:  4068
 C         0.067052        -0.108488         0.346985
 C         1.181066         0.111890        -0.667431
 C         0.859458        -0.011500        -2.209392
 C         1.713342         0.956418        -2.989995
 C         1.250345         1.446570        -4.286126
 O         2.289655         0.495380        -4.298448
 C         2.608856         1.722189        -1.999347
 C         2.116859         1.224425        -0.620788
 O         2.544570        -0.009423        -0.347681
 H        -0.737887        -0.632450        -0.158512
 H         0.483668        -0.598432         1.238529
 H        -0.492101         0.792752         0.738716
 H         1.048044        -0.951809        -2.600240
 H        -0.303491         0.190227        -2.221372
 H         0.346166         1.074488        -4.802678
 H         1.603141         2.495082        -4.416595
 H         3.728907         1.382121        -1.910832
 H         2.836224         2.794088        -2.266948
 H         2.427025         1.905154         0.231635
