19
Iteration:  2155charge 0 multiplicity 1
 C         0.052768         0.014165         0.364926
 C         1.139098         0.144823        -0.708252
 C         0.907815        -0.133791        -2.176139
 C         1.674892         0.924259        -3.017776
 C         1.238491         1.459695        -4.275457
 O         2.378107         0.580761        -4.287271
 C         2.488907         1.695649        -1.970219
 C         2.169155         1.180152        -0.625004
 O         2.582220        -0.091657        -0.353461
 H        -0.805798         0.721307        -0.120140
 H        -0.387710        -0.964669         0.478060
 H         0.370113         0.576124         1.257702
 H         1.078261        -1.170682        -2.493191
 H        -0.225141         0.055311        -2.261792
 H         0.347721         1.199186        -4.809392
 H         1.660483         2.453330        -4.428497
 H         3.583090         1.458120        -1.943367
 H         2.351329         2.748755        -2.227759
 H         2.465329         1.998370         0.077882
