19
Iteration:  3421charge 0 multiplicity 1
 C         0.255305        -0.111634         0.456867
 C         1.141539         0.149335        -0.695745
 C         0.490192         0.193825        -2.064343
 C         1.508379         1.034560        -3.016188
 C         1.656156         1.410606        -4.421242
 O         2.442741         0.280973        -3.808278
 C         2.275847         1.974668        -2.018185
 C         2.272414         1.186282        -0.707079
 O         2.538388        -0.242287        -0.819098
 H        -0.579060        -0.862623         0.362053
 H         1.024487        -0.510738         1.206156
 H        -0.277583         0.776716         0.860512
 H         0.318466        -0.736773        -2.642857
 H        -0.277138         0.842986        -1.994843
 H         0.893600         1.140402        -5.181464
 H         2.316050         2.245245        -4.643044
 H         3.315681         2.296407        -2.295397
 H         1.557603         2.801147        -1.821134
 H         2.664929         1.646102         0.158566
