19
Iteration:  3604
 C         0.003987         0.033414         0.368205
 C         1.174367         0.239009        -0.678090
 C         0.799335        -0.056532        -2.068190
 C         1.683386         0.950534        -3.022038
 C         1.175803         1.379216        -4.345977
 O         2.485511         0.651998        -4.213726
 C         2.510492         1.674639        -1.989802
 C         2.327676         1.174507        -0.599754
 O         2.509932        -0.199786        -0.486144
 H        -0.650485        -0.760128        -0.089820
 H         0.409416        -0.184604         1.464176
 H        -0.796254         0.923440         0.163736
 H         1.029542        -1.067562        -2.295965
 H        -0.302772         0.061395        -2.114056
 H         0.369502         0.828433        -4.860061
 H         1.410422         2.365355        -4.724114
 H         3.569093         1.595836        -2.172633
 H         2.330435         2.756486        -1.976038
 H         2.464679         1.833290         0.211755
