19
Iteration:  4875
 C         0.352088        -0.314975         0.433426
 C         1.105838         0.202630        -0.662129
 C         0.429503         0.276015        -2.131796
 C         1.562143         1.041379        -3.023301
 C         1.662335         1.478012        -4.386426
 O         2.360859         0.272780        -3.931164
 C         2.341650         1.872164        -2.050962
 C         2.173842         1.219954        -0.638182
 O         2.581341        -0.174574        -0.676525
 H         0.894094        -0.085440         1.482573
 H        -0.651657         0.114985         0.497507
 H         0.109745        -1.357910         0.291947
 H         0.155227        -0.683264        -2.599918
 H        -0.284107         1.039130        -2.254833
 H         0.796635         1.385974        -5.041289
 H         2.372312         2.281850        -4.580462
 H         3.361595         1.855434        -2.416672
 H         2.036725         2.986598        -1.987077
 H         2.455908         1.901064         0.226285
