19
Iteration:   483
 C         0.097373        -0.025155         0.349478
 C         1.139594         0.245825        -0.665722
 C         0.612363         0.225629        -2.105602
 C         1.753767         1.029352        -2.976438
 C         1.460508         1.658708        -4.334173
 O         2.161332         0.368278        -4.077697
 C         2.688546         1.710851        -1.986520
 C         2.323810         1.113416        -0.691196
 O         2.429625        -0.391600        -0.571242
 H         0.351337        -1.156863         0.526485
 H         0.139136         0.502585         1.300679
 H        -0.880690         0.027453        -0.088652
 H         0.537190        -0.808990        -2.478380
 H        -0.362776         0.723219        -2.071624
 H         0.500907         1.580701        -4.741453
 H         2.143829         2.381294        -4.753481
 H         3.763490         1.708927        -2.305708
 H         2.545425         2.766854        -1.957597
 H         2.738924         1.456346         0.256344
