19
Iteration:   566
 C         0.347818        -0.311998         0.357102
 C         1.064168         0.392383        -0.786014
 C         0.363789         0.642699        -2.084739
 C         1.570512         1.169949        -2.912144
 C         1.719424         1.274989        -4.360172
 O         2.317200         0.199531        -3.580325
 C         2.490062         1.945018        -1.927736
 C         2.369200         1.012264        -0.708294
 O         2.367078        -0.304916        -1.088354
 H        -0.303400        -1.097160         0.190712
 H         1.130599        -0.719813         1.152050
 H        -0.117081         0.522038         0.984140
 H        -0.097356        -0.277016        -2.434131
 H        -0.503242         1.310305        -1.925427
 H         0.864314         1.049484        -5.105571
 H         2.636816         1.727307        -4.843540
 H         3.396424         1.889765        -2.443689
 H         1.894894         2.898960        -1.658901
 H         2.892680         1.194112         0.225191
