19
Iteration:  1030
 C         0.115013        -0.035602         0.378819
 C         1.101849         0.268520        -0.671090
 C         0.716150         0.176919        -2.229445
 C         1.647732         1.016854        -2.956356
 C         1.377427         1.392742        -4.368524
 O         2.343151         0.441251        -4.068927
 C         2.549786         1.820812        -1.974624
 C         2.277799         1.163398        -0.625284
 O         2.509269        -0.337904        -0.558396
 H         0.767221        -0.297954         1.356971
 H        -0.610598         0.741216         0.553269
 H        -0.397797        -0.906221         0.195251
 H         0.730591        -0.874218        -2.523890
 H        -0.274797         0.616089        -2.290529
 H         0.472292         1.016577        -4.905158
 H         1.696475         2.412011        -4.710355
 H         3.660254         1.725058        -2.257493
 H         2.162361         2.877334        -1.925894
 H         2.578596         1.707740         0.284232
