19
Iteration:  1763charge 0 multiplicity 1
 C         0.283446        -0.091532         0.589609
 C         1.109224         0.198033        -0.689396
 C         0.555650         0.218887        -2.106678
 C         1.615340         1.081826        -3.067318
 C         1.617900         1.509455        -4.465527
 O         2.365534         0.328414        -3.968131
 C         2.377406         1.894548        -2.017325
 C         2.230652         1.152903        -0.657678
 O         2.440057        -0.357205        -0.714965
 H         0.701243         0.470175         1.529285
 H        -0.766243        -0.078185         0.284263
 H         0.371022        -1.050984         0.796824
 H         0.423175        -0.802607        -2.399467
 H        -0.355406         0.790183        -2.307316
 H         0.826905         1.203284        -5.175475
 H         2.255114         2.371321        -4.716395
 H         3.395930         1.872528        -2.346419
 H         2.099393         2.843124        -1.685738
 H         2.530764         1.584012         0.298572
