19
Iteration:  1808
 C         0.265472        -0.223540         0.401168
 C         1.139026         0.234870        -0.771017
 C         0.562346         0.416654        -2.156578
 C         1.588965         1.059600        -2.901324
 C         1.528445         1.231872        -4.360892
 O         2.394515         0.268753        -3.752159
 C         2.408480         1.993825        -1.929632
 C         2.253150         1.203388        -0.654055
 O         2.502351        -0.245293        -0.930521
 H         0.924130        -0.362387         1.329476
 H        -0.637802         0.498194         0.453468
 H        -0.207341        -1.080802         0.124593
 H         0.070140        -0.410305        -2.707525
 H        -0.265222         1.078134        -1.926812
 H         0.634025         0.805330        -4.910351
 H         1.998011         2.055764        -4.919530
 H         3.467452         1.992472        -2.096656
 H         1.902936         2.934336        -1.913855
 H         2.667858         1.428161         0.338452
