19
Iteration:  4113
 C         0.044183        -0.065505         0.278398
 C         1.147420         0.234588        -0.737510
 C         0.885694        -0.141842        -2.146129
 C         1.664442         0.948028        -2.919963
 C         1.273752         1.507979        -4.228436
 O         2.286157         0.488408        -4.241198
 C         2.599326         1.738173        -2.016890
 C         2.252706         1.264800        -0.581122
 O         2.488921        -0.139690        -0.424068
 H        -0.666143        -0.891887         0.174846
 H         0.626832        -0.002372         1.257583
 H        -0.606375         0.787599         0.445484
 H         1.542758        -0.951639        -2.307778
 H        -0.104269        -0.210156        -2.657041
 H         0.280407         1.201182        -4.672063
 H         1.692846         2.497646        -4.552574
 H         3.584477         1.748837        -2.621679
 H         2.212709         2.791710        -2.058096
 H         2.474666         1.934294         0.239728
