19
Iteration:  4832
 C         0.328903        -0.337905         0.343972
 C         1.146255         0.343209        -0.807742
 C         0.516350         0.392477        -2.205740
 C         1.628104         1.134457        -2.928638
 C         1.480417         1.341049        -4.361849
 O         2.398219         0.197344        -3.813385
 C         2.381205         1.982591        -1.874471
 C         2.215192         1.160193        -0.634342
 O         2.505301        -0.220869        -0.791403
 H         0.428356         0.331939         1.305246
 H        -0.726799        -0.451879         0.105431
 H         0.773846        -1.291417         0.543375
 H         0.423031        -0.650411        -2.613076
 H        -0.451026         0.869362        -2.109558
 H         0.486160         1.052459        -4.739815
 H         1.951742         2.036890        -5.052617
 H         3.429828         2.029021        -2.089397
 H         1.994980         2.997650        -1.887361
 H         2.727823         1.576614         0.222277
