19
Iteration:  3418charge 0 multiplicity 1
 C         0.275620        -0.132291         0.489853
 C         1.143225         0.127981        -0.714929
 C         0.488897         0.227148        -2.093634
 C         1.533495         1.035912        -2.992668
 C         1.683085         1.379881        -4.416348
 O         2.428507         0.296226        -3.821979
 C         2.273616         1.967789        -2.011913
 C         2.232047         1.181807        -0.714928
 O         2.546520        -0.237192        -0.828744
 H        -0.562538        -0.704181         0.435046
 H         1.048705        -0.507509         1.234372
 H        -0.365511         0.810394         0.933351
 H         0.325962        -0.744494        -2.601280
 H        -0.492162         0.884792        -2.006054
 H         0.909154         1.130353        -5.133937
 H         2.360207         2.213429        -4.667151
 H         3.253349         2.300454        -2.360949
 H         1.591150         2.827045        -1.768849
 H         2.626272         1.694479         0.179394
