19
Iteration:   297
 C        -0.109568         0.365187        -0.070445
 C         1.142628         0.167559        -0.867436
 C         1.142329        -0.495725        -2.235379
 C         1.845373         0.715762        -3.016912
 C         1.093220         1.858055        -3.601446
 O         1.939255         0.955508        -4.405066
 C         3.007354         1.107474        -2.081812
 C         2.265569         1.087539        -0.728566
 O         2.394933        -0.056099        -0.093017
 H         0.000009        -0.495636         0.671135
 H        -0.061101         1.283113         0.531924
 H        -1.046062         0.485266        -0.579930
 H         1.842013        -1.312322        -2.295286
 H         0.145425        -0.758310        -2.667393
 H         0.034956         1.724768        -3.682932
 H         1.454617         2.841096        -3.665287
 H         3.903194         0.398032        -2.081578
 H         3.360211         2.029539        -2.485885
 H         2.214055         2.075696        -0.166957
