19
Iteration:   387
 C        -0.080306         0.340810         0.039289
 C         1.117626         0.185129        -0.753113
 C         1.099095        -0.290403        -2.167652
 C         1.771336         0.860000        -2.945422
 C         1.104752         1.731604        -3.898158
 O         1.955145         0.768920        -4.394859
 C         2.967799         1.379091        -2.074670
 C         2.354311         1.053906        -0.697469
 O         2.414958        -0.248634        -0.165645
 H        -0.848991        -0.357722        -0.423151
 H         0.077948         0.182203         1.013793
 H        -0.599433         1.418938        -0.029244
 H         1.789959        -1.159896        -2.229763
 H         0.133462        -0.556369        -2.537349
 H         0.089970         1.715626        -4.277874
 H         1.537971         2.769696        -3.850519
 H         3.926009         0.772925        -2.191748
 H         3.392978         2.337164        -2.278782
 H         2.400484         1.753316         0.124431
