19
Iteration:  3596
 C         0.003357         0.041683         0.300496
 C         1.188968         0.225911        -0.663275
 C         0.765203        -0.019143        -2.152049
 C         1.697990         0.920148        -2.981090
 C         1.199647         1.344319        -4.323047
 O         2.447791         0.639137        -4.203724
 C         2.553411         1.744434        -1.945426
 C         2.305286         1.183818        -0.620771
 O         2.511185        -0.224323        -0.455443
 H        -0.312898        -0.898448         0.097327
 H         0.402074        -0.056587         1.354741
 H        -0.627917         0.941944         0.512780
 H         0.917220        -1.104954        -2.495369
 H        -0.357749         0.106892        -2.373610
 H         0.404358         0.758778        -4.787807
 H         1.130153         2.412899        -4.571721
 H         3.606685         1.616259        -2.307584
 H         2.402961         2.787365        -2.142421
 H         2.384993         1.828758         0.264590
