19
Iteration:  2643charge 0 multiplicity 1
 C         0.093083         0.038713         0.329054
 C         1.072963         0.180293        -0.811030
 C         0.923510        -0.129952        -2.258098
 C         1.772216         0.917168        -2.951908
 C         1.171815         1.529941        -4.139729
 O         2.309764         0.454583        -4.198828
 C         2.588560         1.777199        -2.034977
 C         2.198553         1.213330        -0.639108
 O         2.520649        -0.139251        -0.398607
 H        -0.798325        -0.438371         0.198797
 H         0.507960        -0.445204         1.201514
 H        -0.151458         1.148178         0.672760
 H         1.138301        -1.118546        -2.646753
 H        -0.225784        -0.091549        -2.375600
 H         0.174106         1.210402        -4.409623
 H         1.600149         2.394683        -4.599958
 H         3.622079         1.504690        -2.085451
 H         2.494351         2.842101        -2.126456
 H         2.356142         1.946540         0.179270
