19
Iteration:  2774
 C         0.142010        -0.060873         0.360621
 C         1.149214         0.230320        -0.672339
 C         0.725381         0.094207        -2.222305
 C         1.580207         0.972934        -3.004407
 C         1.381217         1.504747        -4.372611
 O         2.264764         0.458155        -4.182504
 C         2.576364         1.692601        -1.985568
 C         2.261652         1.148239        -0.607848
 O         2.583828        -0.181580        -0.367582
 H         0.490086        -0.693427         1.081401
 H        -0.315047         0.824110         0.768243
 H        -0.665224        -0.838900        -0.086675
 H         0.887691        -0.986299        -2.437343
 H        -0.344347         0.379357        -2.499858
 H         0.424163         1.299734        -4.873716
 H         1.838148         2.500396        -4.535675
 H         3.576683         1.646645        -2.389159
 H         2.269907         2.756380        -1.939270
 H         2.322368         2.018975         0.153016
