19
Iteration:  1209charge 0 multiplicity 1
 C         0.234181        -0.126804         0.423851
 C         1.172526         0.249360        -0.706780
 C         0.578107         0.187497        -2.164037
 C         1.678177         0.988529        -2.953693
 C         1.545038         1.451607        -4.399477
 O         2.269684         0.299724        -3.931984
 C         2.398906         1.869432        -1.993691
 C         2.294840         1.207402        -0.643172
 O         2.520285        -0.234020        -0.662847
 H         0.653696         0.058836         1.333339
 H        -0.646652         0.538457         0.382279
 H        -0.218059        -1.196113         0.277647
 H         0.475864        -0.791940        -2.677974
 H        -0.471647         0.568316        -2.276951
 H         0.639957         1.177477        -4.929720
 H         2.110506         2.237272        -4.833593
 H         3.430315         2.065285        -2.407746
 H         1.992538         2.936840        -2.014755
 H         2.426895         1.742150         0.294876
