19
Iteration:   455charge 0 multiplicity 1
 C         0.124252         0.019031         0.394981
 C         1.067507         0.234437        -0.686718
 C         0.750116         0.093973        -2.245071
 C         1.769090         0.990625        -2.974922
 C         1.338516         1.674204        -4.246639
 O         2.177800         0.517854        -4.294113
 C         2.726655         1.511375        -1.986119
 C         2.328126         1.118624        -0.592107
 O         2.379300        -0.262001        -0.402241
 H         0.008733        -1.006637         0.520314
 H         0.501599         0.575877         1.265008
 H        -0.962919         0.360309         0.042392
 H         1.022310        -0.953529        -2.482350
 H        -0.312821         0.229024        -2.472532
 H         0.259232         1.621634        -4.661496
 H         1.818239         2.649858        -4.529787
 H         3.592010         0.905643        -2.386277
 H         3.077003         2.610706        -2.088328
 H         2.673590         1.526910         0.355552
