19
Iteration:  1956charge 0 multiplicity 1
 C         0.073327        -0.012465         0.480857
 C         1.212163         0.149985        -0.738024
 C         0.678653         0.113109        -2.174144
 C         1.634605         1.042147        -2.979483
 C         1.400020         1.327129        -4.414596
 O         2.430266         0.471838        -4.166036
 C         2.426699         1.862512        -1.899634
 C         2.234063         1.155138        -0.587463
 O         2.588376        -0.254576        -0.604529
 H        -0.753386        -0.580604         0.084843
 H         0.437030        -0.399303         1.332243
 H        -0.337973         1.046098         0.838952
 H         0.580978        -0.924169        -2.465780
 H        -0.316305         0.646447        -2.054988
 H         0.582502         0.732484        -4.802399
 H         1.598672         2.212585        -4.955129
 H         3.527430         1.988486        -2.055615
 H         1.896486         2.863635        -1.853903
 H         2.434775         1.602886         0.384960
