19
Iteration:  1396charge 0 multiplicity 1
 C         0.011623         0.155663         0.293819
 C         1.177985         0.176454        -0.761292
 C         0.934995        -0.261146        -2.221866
 C         1.668165         0.855003        -2.958572
 C         1.155643         1.584918        -4.165677
 O         2.270353         0.715240        -4.355777
 C         2.718244         1.467165        -2.039641
 C         2.338631         1.253643        -0.648129
 O         2.434824        -0.118170        -0.223725
 H         0.345482         0.578112         1.118696
 H        -0.963779         0.585263         0.036141
 H        -0.273616        -0.968152         0.553305
 H         1.110005        -1.318030        -2.509539
 H        -0.175756        -0.192479        -2.217941
 H         0.236075         1.248752        -4.594119
 H         1.304579         2.662231        -4.317534
 H         3.728067         1.030196        -2.207820
 H         2.967019         2.524256        -2.406593
 H         2.227838         1.845770         0.216395
