19
Iteration:  4406
 C         0.255873        -0.443867         0.345160
 C         1.196834         0.226540        -0.775974
 C         0.535946         0.381421        -2.171589
 C         1.595732         1.084427        -2.970055
 C         1.484099         1.211740        -4.444662
 O         2.328203         0.244072        -3.838514
 C         2.451631         1.996547        -1.954044
 C         2.206368         1.312113        -0.611476
 O         2.584694        -0.075796        -0.684630
 H         0.570909        -1.494930         0.484582
 H         0.190603         0.015000         1.419237
 H        -0.752034        -0.464338        -0.026834
 H         0.246005        -0.555664        -2.557103
 H        -0.340480         1.009761        -2.018476
 H         0.614707         0.969164        -4.959468
 H         1.936501         2.027804        -4.867580
 H         3.519714         2.049111        -2.225749
 H         2.152037         3.049813        -1.883266
 H         2.392969         1.795041         0.379618
