19
Iteration:  2719
 C         0.181751        -0.036052         0.343233
 C         1.083273         0.167073        -0.744233
 C         0.767395        -0.034585        -2.291447
 C         1.759894         0.896919        -2.984855
 C         1.243507         1.586348        -4.224721
 O         2.287094         0.436235        -4.210088
 C         2.657665         1.673084        -1.966377
 C         2.164562         1.257332        -0.574612
 O         2.498051        -0.089660        -0.435165
 H         0.537685        -0.820263         0.862215
 H         0.219789         0.703781         1.135269
 H        -0.990616        -0.303981         0.179818
 H         0.970425        -1.123734        -2.443297
 H        -0.310105         0.328823        -2.587777
 H         0.222922         1.286202        -4.476797
 H         1.480019         2.588990        -4.591520
 H         3.624998         1.269374        -2.170002
 H         2.869325         2.719799        -2.176396
 H         2.366609         2.005483         0.287894
