19
Iteration:  1686charge 0 multiplicity 1
 C        -0.008639        -0.113291         0.285659
 C         1.135951         0.237680        -0.670475
 C         0.796598         0.034706        -2.132303
 C         1.715367         1.025427        -3.056658
 C         1.179778         1.539673        -4.349235
 O         2.239293         0.432294        -4.288944
 C         2.705854         1.726749        -2.005180
 C         2.369853         1.220518        -0.564011
 O         2.535761        -0.210463        -0.276027
 H         0.368732        -0.044542         1.401923
 H        -0.701912         0.746676         0.137573
 H        -0.434699        -0.974315         0.025112
 H         0.914286        -0.898250        -2.620257
 H        -0.267583         0.238846        -2.266024
 H         0.229104         1.267363        -4.812186
 H         1.643472         2.497708        -4.683913
 H         3.680270         1.256514        -2.118912
 H         2.847404         2.762991        -2.060921
 H         2.434665         1.858989         0.328827
