19
Iteration:  3871charge 0 multiplicity 1
 C         0.204908        -0.432044         0.382001
 C         1.140208         0.294168        -0.693148
 C         0.535896         0.318534        -2.061135
 C         1.446351         1.170201        -3.002706
 C         1.673851         1.251570        -4.502215
 O         2.318154         0.253424        -3.794243
 C         2.398275         2.001814        -2.013545
 C         2.281408         1.276960        -0.656217
 O         2.589299        -0.148780        -0.733417
 H        -0.247402        -1.298107        -0.085499
 H         0.726628        -0.778904         1.163173
 H        -0.536569         0.358330         0.741198
 H         0.398215        -0.701351        -2.395512
 H        -0.316297         0.914069        -1.891176
 H         0.870815         0.896151        -5.152604
 H         2.230524         2.073787        -4.964209
 H         3.445578         1.992245        -2.330563
 H         1.893002         2.928386        -2.035058
 H         2.696049         1.688250         0.341768
