19
Iteration:   334charge 0 multiplicity 1
 C        -0.120920         0.436321        -0.164450
 C         1.200363         0.120736        -0.780683
 C         1.185330        -0.444567        -2.212065
 C         1.913077         0.785309        -2.967618
 C         0.989610         1.742838        -3.638962
 O         1.874040         0.929626        -4.417128
 C         3.027718         1.177599        -2.088073
 C         2.427546         1.172189        -0.701220
 O         2.329948        -0.177534        -0.085586
 H        -0.693012        -0.466840         0.016857
 H         0.041978         0.979903         0.716984
 H        -0.891599         0.914273        -0.955378
 H         1.724196        -1.424169        -2.272174
 H         0.185830        -0.702250        -2.485740
 H        -0.105839         1.464792        -3.647279
 H         1.203380         2.860919        -3.812129
 H         3.908733         0.584878        -2.330839
 H         3.328297         2.264940        -2.192923
 H         2.402057         1.933811         0.030927
