19
Iteration:    50
 C         0.317909        -0.412243         0.325497
 C         1.144166         0.318975        -0.787276
 C         0.390832         0.768127        -2.033465
 C         1.574647         1.209167        -2.920538
 C         1.672232         1.200323        -4.345104
 O         2.249708         0.137655        -3.601488
 C         2.558470         1.917288        -1.917756
 C         2.337791         1.110438        -0.696005
 O         2.407537        -0.279565        -1.080220
 H         0.375626        -1.487796         0.113492
 H         0.406775        -0.132559         1.405779
 H        -0.755833        -0.225783         0.037989
 H        -0.282083         0.052146        -2.561558
 H        -0.233011         1.641401        -1.758683
 H         0.833698         1.031397        -5.098673
 H         2.479159         1.849902        -4.781433
 H         3.603455         2.114076        -2.314373
 H         2.272725         2.953731        -1.566327
 H         2.676317         1.438901         0.307209
