19
Iteration:  3617
 C         0.018634         0.009091         0.337207
 C         1.110872         0.239974        -0.607053
 C         0.851523        -0.086536        -2.123076
 C         1.640876         0.925078        -2.988529
 C         1.292697         1.452238        -4.365706
 O         2.399849         0.598916        -4.194457
 C         2.540708         1.768098        -2.048151
 C         2.215709         1.192103        -0.624511
 O         2.563820        -0.248433        -0.439130
 H        -0.611573        -0.781312         0.162852
 H         0.259393        -0.110857         1.471208
 H        -0.451086         1.107494         0.470768
 H         1.103087        -1.165721        -2.215568
 H        -0.205552         0.051625        -2.512238
 H         0.422900         0.957975        -4.805995
 H         1.410009         2.482548        -4.716790
 H         3.551421         1.658540        -2.467729
 H         2.258989         2.810844        -2.042658
 H         2.648334         1.701325         0.214001
