19
Iteration:  1333charge 0 multiplicity 1
 C         0.054190        -0.029241         0.283176
 C         1.141927         0.319209        -0.793331
 C         0.904109        -0.064759        -2.175903
 C         1.767033         0.853595        -2.957840
 C         1.310858         1.636004        -4.099797
 O         2.090620         0.427401        -4.254911
 C         2.773144         1.627965        -1.996573
 C         2.199655         1.281223        -0.699890
 O         2.448111        -0.147708        -0.369584
 H         0.257342         0.300942         1.340753
 H        -0.997317         0.164038         0.040974
 H         0.173096        -1.137223         0.182437
 H         1.270025        -1.089476        -2.422279
 H        -0.145103        -0.069895        -2.505162
 H         0.279564         1.525441        -4.344411
 H         1.784014         2.572988        -4.452229
 H         3.809459         1.309295        -2.049720
 H         2.676404         2.721347        -2.184601
 H         2.305122         2.061654         0.050134
