19
Iteration:   140charge 0 multiplicity 1
 C         0.211225        -0.060058         0.360643
 C         1.126645         0.256354        -0.721512
 C         0.505233         0.363515        -2.103620
 C         1.623437         1.049919        -2.932038
 C         1.530060         1.472504        -4.354216
 O         2.318803         0.343924        -3.999647
 C         2.567433         1.796704        -1.907891
 C         2.317982         1.077020        -0.622336
 O         2.439839        -0.370735        -0.773147
 H        -0.594342        -0.716608         0.050362
 H         0.831811        -0.633805         1.221300
 H        -0.261140         0.781301         0.741386
 H         0.323585        -0.698227        -2.415481
 H        -0.486936         0.840752        -2.048393
 H         0.704941         1.333185        -5.019099
 H         2.134518         2.347387        -4.642188
 H         3.588977         1.746196        -2.250363
 H         2.139443         2.833490        -1.820646
 H         2.745281         1.435026         0.296107
