19
Iteration:  1215charge 0 multiplicity 1
 C         0.233653        -0.085989         0.460136
 C         1.184080         0.275902        -0.702594
 C         0.573639         0.129362        -2.223153
 C         1.665579         0.959423        -2.945822
 C         1.551419         1.458501        -4.312610
 O         2.291233         0.301521        -3.990949
 C         2.431226         1.887448        -2.004377
 C         2.251567         1.190382        -0.620251
 O         2.503060        -0.222162        -0.709062
 H         0.638185         0.030987         1.608843
 H        -0.576597         0.645411         0.326691
 H        -0.155705        -1.017337         0.245179
 H         0.598762        -0.905937        -2.597710
 H        -0.455945         0.474531        -2.205519
 H         0.615030         1.205772        -4.849874
 H         2.095359         2.376533        -4.716568
 H         3.446705         1.951918        -2.391657
 H         1.856634         2.797752        -2.001840
 H         2.388789         1.703107         0.346905
