19
Iteration:   644
 C         0.160902        -0.199399         0.381098
 C         1.078669         0.281953        -0.720202
 C         0.554624         0.362084        -2.103635
 C         1.666422         1.078084        -2.915945
 C         1.526057         1.449240        -4.345473
 O         2.319289         0.291582        -3.986549
 C         2.638693         1.819010        -2.037369
 C         2.316904         1.145735        -0.655687
 O         2.395058        -0.257361        -0.720813
 H        -0.922054        -0.299350         0.235710
 H         0.754253        -1.185695         0.687084
 H         0.222311         0.258524         1.360907
 H         0.322706        -0.646109        -2.456567
 H        -0.399810         0.884530        -1.902832
 H         0.504737         1.133286        -4.670473
 H         1.953005         2.412741        -4.816427
 H         3.637027         1.571650        -2.315301
 H         2.376262         2.942783        -1.996784
 H         2.662808         1.456957         0.334248
