19
Iteration:  4265charge 0 multiplicity 1
 C         0.194754        -0.225284         0.466997
 C         1.106552         0.243637        -0.685287
 C         0.718035         0.209347        -2.172339
 C         1.720024         1.000511        -2.978156
 C         1.366845         1.329827        -4.396517
 O         2.444996         0.407650        -4.135309
 C         2.448359         1.850062        -1.941274
 C         2.138070         1.235647        -0.578916
 O         2.520712        -0.149142        -0.631356
 H        -0.385831        -1.097473         0.139795
 H         0.652539        -0.624171         1.449048
 H        -0.553084         0.503182         0.705444
 H         0.533060        -0.790471        -2.459491
 H        -0.317560         0.770696        -2.263836
 H         0.513165         0.857480        -4.889088
 H         1.633527         2.165149        -5.006176
 H         3.534650         2.055488        -2.123382
 H         2.091009         2.891922        -1.901538
 H         2.394465         1.728271         0.418832
