19
Iteration:  1132
 C         0.360626        -0.396188         0.335232
 C         1.083665         0.332000        -0.746113
 C         0.395908         0.525764        -2.152204
 C         1.654073         1.094630        -2.885170
 C         1.666555         1.241904        -4.362385
 O         2.277289         0.093745        -3.713305
 C         2.425821         2.010778        -1.945997
 C         2.296456         1.300650        -0.643695
 O         2.445118        -0.164431        -0.959070
 H         0.851112        -0.326613         1.232559
 H        -0.630074        -0.013776         0.547146
 H         0.274867        -1.560030         0.141375
 H         0.146204        -0.532289        -2.362043
 H        -0.609337         0.996808        -2.095859
 H         0.719305         1.082522        -4.833002
 H         2.434669         1.765730        -4.870043
 H         3.489577         2.221572        -2.200839
 H         2.136470         3.082556        -1.888524
 H         2.875535         1.418593         0.270572
