19
Iteration:  2943charge 0 multiplicity 1
 C         0.277157        -0.347317         0.297286
 C         1.137655         0.309317        -0.765311
 C         0.502499         0.552369        -2.060077
 C         1.594591         1.152617        -2.952505
 C         1.463572         1.204733        -4.412165
 O         2.432146         0.288826        -3.731550
 C         2.428977         1.938041        -1.992114
 C         2.301214         1.195999        -0.612314
 O         2.473958        -0.285788        -0.828513
 H         0.232111         0.045859         1.410842
 H        -0.787337        -0.404975        -0.052953
 H         0.651423        -1.268020         0.449552
 H         0.218296        -0.328327        -2.620862
 H        -0.312057         1.339807        -2.059218
 H         0.552040         0.646802        -4.647418
 H         1.869231         1.825768        -5.195970
 H         3.564634         1.742348        -2.140961
 H         2.177564         3.051191        -2.084995
 H         2.720923         1.550998         0.254849
