19
Iteration:  2747
 C         0.146144        -0.120324         0.441551
 C         1.084655         0.207787        -0.634764
 C         0.754895        -0.010920        -2.125367
 C         1.718526         0.903496        -3.005748
 C         1.381887         1.593937        -4.280811
 O         2.265121         0.441957        -4.259952
 C         2.704014         1.747603        -2.063984
 C         2.158363         1.276425        -0.672543
 O         2.411614        -0.168275        -0.468244
 H         0.604133        -0.956146         1.162863
 H        -0.146786         0.721022         1.113440
 H        -0.690404        -0.594505         0.126605
 H         1.130620        -1.029325        -2.176512
 H        -0.234301         0.154946        -2.457131
 H         0.411361         1.473916        -4.789329
 H         1.781516         2.600861        -4.429647
 H         3.798127         1.596967        -2.292266
 H         2.637013         2.852921        -2.250002
 H         2.342942         1.943619         0.120335
