19
Iteration:  2847charge 0 multiplicity 1
 C         0.262299        -0.146445         0.508306
 C         1.102841         0.260433        -0.685254
 C         0.617631         0.254142        -2.160198
 C         1.637103         1.047295        -2.957820
 C         1.512441         1.403906        -4.397768
 O         2.373960         0.392905        -3.987024
 C         2.465022         1.840566        -1.997792
 C         2.300152         1.135842        -0.686378
 O         2.371501        -0.276757        -0.712174
 H         0.414587         0.395742         1.497181
 H        -0.839772        -0.101491         0.319109
 H         0.568272        -1.148493         0.809140
 H         0.523108        -0.738205        -2.651831
 H        -0.365851         0.781076        -2.071230
 H         0.798672         1.000522        -5.121275
 H         1.988489         2.369279        -4.585671
 H         3.467621         1.868672        -2.371132
 H         1.922916         2.893726        -1.977624
 H         2.672924         1.587801         0.241291
