19
Iteration:   906charge 0 multiplicity 1
 C        -0.035355         0.326228         0.066768
 C         1.225693         0.141918        -0.758696
 C         1.064324        -0.375857        -2.174049
 C         1.727828         0.827666        -3.060227
 C         1.018710         1.706488        -4.038704
 O         2.125541         0.694061        -4.370704
 C         2.813463         1.480594        -1.982865
 C         2.265470         1.185817        -0.635957
 O         2.532368        -0.193368        -0.091221
 H         0.281965         0.828347         0.911887
 H        -0.837789         0.877520        -0.598823
 H        -0.584793        -0.609953         0.250164
 H         1.501496        -1.381753        -2.294121
 H         0.012604        -0.340478        -2.556204
 H         0.074987         1.317351        -4.615218
 H         1.338350         2.774698        -4.228516
 H         3.614187         0.771498        -2.253865
 H         2.921518         2.646315        -2.009382
 H         2.041782         1.913477         0.180270
