19
Iteration:  1848
 C         0.263778        -0.373621         0.296537
 C         1.123475         0.326057        -0.760223
 C         0.510653         0.502087        -2.158889
 C         1.607450         1.128242        -2.919224
 C         1.534817         1.198429        -4.410707
 O         2.299960         0.211494        -3.711142
 C         2.428694         1.936428        -1.995792
 C         2.305618         1.236765        -0.646251
 O         2.518527        -0.182264        -0.764621
 H         1.035810        -1.118816         0.730992
 H        -0.081601         0.057594         1.144896
 H        -0.498872        -1.088264        -0.193425
 H         0.134444        -0.441642        -2.427921
 H        -0.285311         1.291248        -2.229372
 H         0.696869         0.980371        -5.056673
 H         2.227888         1.928868        -4.815290
 H         3.421476         2.092393        -2.476361
 H         2.051441         2.966569        -1.770244
 H         2.755375         1.729551         0.228173
