19
Iteration:  2637charge 0 multiplicity 1
 C         0.071799         0.038228         0.389545
 C         1.116447         0.143963        -0.776187
 C         0.860822        -0.110322        -2.294514
 C         1.790723         0.917311        -2.971124
 C         1.168705         1.527915        -4.154363
 O         2.316522         0.444426        -4.180761
 C         2.648354         1.758365        -1.991249
 C         2.155998         1.238079        -0.663484
 O         2.531549        -0.126213        -0.403284
 H        -1.014475        -0.361741        -0.019549
 H         0.722719        -0.485419         1.143589
 H        -0.045868         1.014122         0.712018
 H         1.161768        -1.169099        -2.526855
 H        -0.162174        -0.035355        -2.616377
 H         0.181297         1.201573        -4.542256
 H         1.393698         2.572938        -4.522822
 H         3.714799         1.456338        -2.360824
 H         2.418828         2.855621        -2.123754
 H         2.160208         2.014934         0.123484
