19
Iteration:  2896charge 0 multiplicity 1
 C         0.318625        -0.303858         0.384051
 C         1.144206         0.210437        -0.777426
 C         0.515953         0.494880        -2.119305
 C         1.647961         1.090776        -2.972620
 C         1.630183         1.367537        -4.369815
 O         2.255533         0.153711        -3.811478
 C         2.419212         1.918089        -1.974112
 C         2.186525         1.215577        -0.622211
 O         2.513307        -0.216614        -0.853584
 H         0.373936         0.482239         1.181610
 H        -0.751181        -0.377748         0.181561
 H         0.703530        -1.183718         1.012295
 H         0.291012        -0.484820        -2.542219
 H        -0.396978         1.104219        -2.122702
 H         0.757897         1.214063        -5.017610
 H         2.376302         2.145326        -4.581706
 H         3.510337         1.960260        -2.383225
 H         1.835917         2.922572        -1.652841
 H         2.494073         1.612612         0.359084
