19
Iteration:  3637charge 0 multiplicity 1
 C         0.154217         0.036129         0.348749
 C         1.145415         0.153964        -0.814073
 C         0.857331        -0.087790        -2.240997
 C         1.678472         0.966535        -2.999016
 C         1.296191         1.519868        -4.246861
 O         2.325092         0.414665        -4.163348
 C         2.522640         1.795068        -1.993025
 C         2.231630         1.225917        -0.635554
 O         2.474925        -0.169979        -0.386637
 H        -0.526676        -0.895330         0.271257
 H         0.526888        -0.178216         1.481160
 H        -0.623189         0.993341         0.490099
 H         1.210325        -1.018585        -2.594584
 H        -0.222729         0.067478        -2.341379
 H         0.351734         1.318132        -4.771239
 H         1.842476         2.401921        -4.566341
 H         3.581684         1.764904        -2.248653
 H         2.129751         2.791771        -1.788677
 H         2.152840         1.839855         0.217179
