19
Iteration:  4945charge 0 multiplicity 1
 C         0.190952        -0.067326         0.267181
 C         1.182403         0.204267        -0.721809
 C         0.712821         0.148815        -2.118374
 C         1.648944         0.957404        -3.000306
 C         1.266152         1.366246        -4.305990
 O         2.451145         0.485324        -3.996323
 C         2.375171         1.895430        -1.928493
 C         2.278970         1.139488        -0.613426
 O         2.571241        -0.253292        -0.627469
 H         0.524987        -0.371091         1.231041
 H        -0.478399         0.818920         0.389000
 H        -0.575476        -0.816037        -0.134857
 H         0.690411        -0.905043        -2.388953
 H        -0.341527         0.622068        -2.199781
 H         0.367568         0.849037        -4.753335
 H         1.504252         2.311550        -4.861049
 H         3.436716         1.916783        -2.343557
 H         2.042535         2.886533        -1.956396
 H         2.468778         1.560718         0.436929
