19
Iteration:  1582
 C        -0.062040         0.112788         0.116000
 C         1.217609         0.223606        -0.686678
 C         1.010625        -0.176232        -2.103316
 C         1.679853         0.974079        -2.947603
 C         1.099105         1.623791        -4.199115
 O         2.113670         0.616272        -4.339608
 C         2.783379         1.495411        -2.035691
 C         2.355927         1.143838        -0.665366
 O         2.490435        -0.151551        -0.147994
 H         0.039550         0.568497         1.019400
 H        -0.884949         0.534488        -0.477356
 H        -0.379058        -1.041060         0.293092
 H         1.643781        -1.073463        -2.426944
 H        -0.005611        -0.186580        -2.524489
 H         0.077100         1.276653        -4.441307
 H         1.268519         2.636785        -4.552317
 H         3.708625         1.018157        -2.442491
 H         3.143456         2.583005        -2.155237
 H         2.555391         1.807202         0.163076
