19
Iteration:  2697charge 0 multiplicity 1
 C         0.106725        -0.017569         0.310702
 C         1.157218         0.193915        -0.729067
 C         0.864911        -0.034525        -2.166995
 C         1.677735         0.967601        -2.959944
 C         1.265363         1.482797        -4.284156
 O         2.239022         0.545624        -4.231190
 C         2.646733         1.668371        -2.029642
 C         2.215783         1.226590        -0.653765
 O         2.524031        -0.205256        -0.312942
 H         0.029190        -0.983075         0.605305
 H         0.129363         0.564535         1.244518
 H        -0.978000         0.139563        -0.177089
 H         1.069822        -1.051011        -2.602210
 H        -0.233769         0.323157        -2.165135
 H         0.315519         1.158357        -4.741627
 H         1.565252         2.483502        -4.605977
 H         3.660044         1.524242        -2.296086
 H         2.603086         2.756440        -2.033728
 H         2.270580         2.110610         0.018704
