19
Iteration:  1466charge 0 multiplicity 1
 C        -0.044814         0.142427         0.037159
 C         1.223556         0.165752        -0.717988
 C         1.088519        -0.203017        -2.143517
 C         1.747755         0.842501        -3.056992
 C         1.039931         1.692310        -4.079107
 O         2.088656         0.590597        -4.361956
 C         2.778377         1.453468        -2.055878
 C         2.307137         1.273272        -0.592354
 O         2.493332        -0.140726        -0.090005
 H         0.303313         0.213396         1.145239
 H        -0.766711         0.887052        -0.236336
 H        -0.481313        -0.756853        -0.122642
 H         1.540442        -1.135230        -2.484124
 H         0.045335        -0.326304        -2.424180
 H        -0.016665         1.416804        -4.336025
 H         1.277772         2.709091        -4.357099
 H         3.767888         1.067896        -2.319616
 H         2.994131         2.495391        -2.069382
 H         2.186374         2.152382         0.129451
