19
Iteration:  1667charge 0 multiplicity 1
 C         0.096418         0.012495         0.274891
 C         1.162714         0.243085        -0.680570
 C         0.903807        -0.038290        -2.184852
 C         1.653667         0.925579        -2.965298
 C         1.288646         1.559547        -4.283812
 O         2.184986         0.564092        -4.234029
 C         2.693946         1.562612        -2.016443
 C         2.230253         1.229640        -0.672311
 O         2.486521        -0.177252        -0.291142
 H         0.541163        -0.377882         1.293096
 H        -0.632220         0.943357         0.316876
 H        -0.530264        -0.816686        -0.137253
 H         1.194852        -1.127599        -2.337101
 H        -0.210026        -0.019339        -2.337260
 H         0.238243         1.361763        -4.622497
 H         1.725197         2.524837        -4.609239
 H         3.653191         1.209792        -2.399405
 H         2.442044         2.637365        -2.229566
 H         2.330234         1.863839         0.193098
