19
Iteration:  4215
 C         0.129775        -0.232582         0.323080
 C         1.124359         0.271993        -0.746494
 C         0.727044         0.027104        -2.158463
 C         1.564787         1.011932        -2.956225
 C         1.436587         1.530832        -4.348313
 O         2.253139         0.366099        -4.111720
 C         2.549475         1.789199        -2.017802
 C         2.226922         1.274611        -0.613206
 O         2.596040        -0.112850        -0.444185
 H         0.178291        -1.290267         0.668489
 H         0.234792         0.336334         1.236051
 H        -0.889338        -0.056771        -0.037253
 H         1.046710        -1.034684        -2.432533
 H        -0.282492         0.077335        -2.368497
 H         0.491854         1.422772        -4.946900
 H         1.923564         2.524167        -4.546601
 H         3.596415         1.553428        -2.175636
 H         2.572565         2.861921        -2.206518
 H         2.283098         1.799667         0.297254
