19
Iteration:  4976
 C         0.166093        -0.108130         0.440397
 C         1.186781         0.131851        -0.708391
 C         0.690592         0.057145        -2.175581
 C         1.593211         1.003893        -3.046212
 C         1.382514         1.569319        -4.407808
 O         2.372261         0.424471        -4.109405
 C         2.434836         1.913787        -1.990008
 C         2.248975         1.092222        -0.646302
 O         2.546870        -0.219505        -0.452526
 H         0.597275         0.012877         1.451080
 H        -0.590062         0.680842         0.345210
 H        -0.270454        -1.161966         0.445448
 H         0.869062        -0.930042        -2.545176
 H        -0.376023         0.240200        -2.224035
 H         0.441410         1.215310        -4.912739
 H         1.955605         2.480653        -4.727362
 H         3.528442         1.956295        -2.417729
 H         2.097612         2.960405        -1.898915
 H         2.458906         1.660660         0.264113
