19
Iteration:  3303
 C         0.285084        -0.297417         0.363620
 C         1.107015         0.193946        -0.753774
 C         0.560935         0.294889        -2.208818
 C         1.724811         1.086556        -2.948086
 C         1.508941         1.302180        -4.407552
 O         2.259522         0.222136        -3.935449
 C         2.472379         1.963762        -1.956430
 C         2.180405         1.225766        -0.564261
 O         2.546106        -0.092836        -0.663292
 H         0.594613        -1.395263         0.693822
 H         0.531285         0.347419         1.233199
 H        -0.711579        -0.123309         0.119529
 H         0.409337        -0.651954        -2.753260
 H        -0.361219         1.002004        -2.068353
 H         0.552891         0.999877        -4.865861
 H         2.067382         2.092696        -4.909950
 H         3.509297         2.105587        -2.307754
 H         1.923762         2.826917        -1.782058
 H         2.370332         1.806401         0.306540
