19
Iteration:  4028charge 0 multiplicity 1
 C         0.145145        -0.142521         0.401475
 C         1.090318         0.271696        -0.720543
 C         0.821892        -0.042830        -2.208427
 C         1.649805         0.958731        -2.976222
 C         1.322050         1.473981        -4.299659
 O         2.318923         0.459701        -4.189175
 C         2.583677         1.746366        -2.014390
 C         2.232000         1.282848        -0.672563
 O         2.473656        -0.102313        -0.368599
 H        -0.480565        -1.003191         0.013714
 H         0.766399        -0.542411         1.315313
 H        -0.511672         0.668884         0.543133
 H         0.956957        -1.215984        -2.554889
 H        -0.179714         0.059032        -2.530250
 H         0.384851         1.193769        -4.859438
 H         1.564183         2.565732        -4.456248
 H         3.602334         1.538788        -2.443481
 H         2.573802         2.823237        -1.965857
 H         2.353291         1.940333         0.132667
