19
Iteration:  3854
 C         0.283023        -0.352289         0.328877
 C         1.138590         0.189910        -0.730543
 C         0.496869         0.406013        -2.126981
 C         1.637424         1.060601        -2.943282
 C         1.535227         1.256073        -4.383580
 O         2.384781         0.202592        -3.751840
 C         2.320642         2.056384        -2.027834
 C         2.311647         1.293634        -0.685999
 O         2.514472        -0.157281        -0.743052
 H        -0.383010        -1.092572        -0.267550
 H         0.895175        -0.983846         1.176248
 H        -0.290338         0.340077         0.888473
 H         0.319411        -0.634425        -2.613951
 H        -0.533494         0.968459        -2.188951
 H         0.734452         0.884781        -5.055643
 H         2.154954         2.082335        -4.807302
 H         3.347425         2.209948        -2.426984
 H         1.936368         3.109813        -1.767665
 H         2.603024         1.783068         0.201355
