19
Iteration:  3242charge 0 multiplicity 1
 C         0.256959        -0.067257         0.466126
 C         1.089522         0.206766        -0.743253
 C         0.673273         0.093812        -2.176908
 C         1.648128         0.973893        -2.978074
 C         1.417873         1.427422        -4.358949
 O         2.426810         0.412538        -4.079240
 C         2.377995         1.852735        -2.009910
 C         2.167336         1.219413        -0.641216
 O         2.549371        -0.256475        -0.548058
 H        -0.137977        -1.038049         0.476128
 H         0.729332         0.118014         1.401852
 H        -0.698443         0.689504         0.489754
 H         0.689522        -0.935992        -2.526490
 H        -0.282909         0.400465        -2.479047
 H         0.546964         1.084666        -4.943414
 H         1.764012         2.425239        -4.646586
 H         3.395173         1.952977        -2.384151
 H         2.116331         2.995239        -1.996281
 H         2.541134         1.642998         0.332789
