19
Iteration:  3177charge 0 multiplicity 1
 C         0.092106        -0.132871         0.353575
 C         1.174689         0.251082        -0.612377
 C         0.753489         0.001961        -2.189664
 C         1.643604         0.932237        -2.981888
 C         1.271238         1.437045        -4.302613
 O         2.368966         0.494334        -4.135420
 C         2.621385         1.802505        -2.036160
 C         2.239538         1.257769        -0.665080
 O         2.502029        -0.178856        -0.465883
 H        -0.436763        -0.810800        -0.205858
 H         0.402448        -0.421750         1.299896
 H        -0.687641         0.757034         0.438518
 H         0.823441        -1.123669        -2.226274
 H        -0.319090         0.328733        -2.265070
 H         0.341375         1.003595        -4.732092
 H         1.563920         2.384512        -4.758176
 H         3.678960         1.761348        -2.324141
 H         2.349857         2.933903        -2.251266
 H         2.650593         1.863178         0.241341
