19
Iteration:  1718charge 0 multiplicity 1
 C         0.170784        -0.088736         0.287737
 C         1.127297         0.292497        -0.735021
 C         0.680338         0.161699        -2.141927
 C         1.770710         0.938742        -3.008435
 C         1.268536         1.515278        -4.244969
 O         2.286979         0.368826        -4.111365
 C         2.668724         1.766337        -1.958521
 C         2.225295         1.225246        -0.633897
 O         2.467362        -0.266087        -0.520851
 H         0.515238         0.450762         1.233690
 H        -0.789530         0.113877        -0.043348
 H         0.190141        -1.125411         0.510474
 H         0.667264        -0.801094        -2.573653
 H        -0.316819         0.586360        -2.148366
 H         0.314415         1.259217        -4.669304
 H         1.775932         2.420669        -4.632923
 H         3.722781         1.504083        -2.052727
 H         2.426743         2.752118        -2.218538
 H         2.334692         1.778291         0.312097
