19
Iteration:  2885charge 0 multiplicity 1
 C         0.368577        -0.200484         0.428621
 C         1.125656         0.156863        -0.811172
 C         0.471414         0.395172        -2.155860
 C         1.526731         1.075055        -2.911730
 C         1.683489         1.374613        -4.406690
 O         2.266083         0.206938        -3.876941
 C         2.433832         1.883701        -1.906528
 C         2.204518         1.167747        -0.632393
 O         2.517999        -0.198787        -0.790891
 H         0.440085         0.636835         1.144550
 H        -0.676386        -0.383887         0.180537
 H         0.767616        -1.224472         0.801681
 H         0.060662        -0.456384        -2.716670
 H        -0.310522         1.155994        -1.993177
 H         0.878848         1.230976        -5.152819
 H         2.334166         2.210393        -4.738307
 H         3.554464         2.131542        -2.063725
 H         2.075171         3.023636        -2.012796
 H         2.406103         1.619922         0.365376
