19
Iteration:  3082
 C         0.037536        -0.111264         0.286013
 C         1.141902         0.293890        -0.698172
 C         0.779891         0.085385        -2.064326
 C         1.690501         1.033129        -2.973073
 C         1.251470         1.413472        -4.316579
 O         2.331177         0.412746        -4.143175
 C         2.576853         1.846166        -2.040970
 C         2.318265         1.150837        -0.604297
 O         2.527181        -0.236057        -0.509434
 H         0.400487        -1.084285         0.843429
 H        -0.009907         0.814510         0.933734
 H        -0.906096        -0.373807        -0.151901
 H         0.905766        -0.908694        -2.493082
 H        -0.249220         0.487216        -2.164000
 H         0.317148         1.123063        -4.835431
 H         1.639711         2.394099        -4.604190
 H         3.677977         1.954718        -2.196076
 H         2.283567         2.879089        -1.974483
 H         2.503857         1.664182         0.401531
