19
Iteration:  1208charge 0 multiplicity 1
 C         0.228761        -0.135471         0.408225
 C         1.162236         0.238934        -0.710392
 C         0.580319         0.200345        -2.152118
 C         1.670707         0.998131        -2.952527
 C         1.540457         1.447560        -4.413361
 O         2.271684         0.295684        -3.925804
 C         2.395680         1.867978        -1.990883
 C         2.302185         1.213121        -0.649422
 O         2.525186        -0.235976        -0.653620
 H         0.696973         0.059592         1.360804
 H        -0.651189         0.509723         0.391941
 H        -0.199363        -1.186990         0.302919
 H         0.469669        -0.774033        -2.669598
 H        -0.449299         0.600145        -2.281425
 H         0.627860         1.174052        -4.953675
 H         2.136337         2.232701        -4.854938
 H         3.439257         2.081339        -2.395602
 H         2.015292         2.943209        -2.005418
 H         2.453691         1.749403         0.287597
