19
Iteration:  3876charge 0 multiplicity 1
 C         0.210716        -0.369207         0.393978
 C         1.140329         0.247261        -0.706821
 C         0.550708         0.337776        -2.050811
 C         1.454882         1.188625        -3.002611
 C         1.689774         1.251777        -4.485334
 O         2.306248         0.264426        -3.815583
 C         2.380944         1.921272        -2.004559
 C         2.278889         1.291745        -0.640403
 O         2.592075        -0.138958        -0.744027
 H        -0.050252        -1.288332        -0.242509
 H         0.805616        -0.812449         1.364294
 H        -0.630830         0.186481         0.748105
 H         0.399357        -0.746237        -2.415445
 H        -0.467545         0.904954        -2.011890
 H         0.870484         0.852054        -5.130094
 H         2.230092         2.098794        -4.981744
 H         3.431705         1.977895        -2.342167
 H         1.920566         2.981281        -1.974616
 H         2.494268         1.730307         0.284138
