19
Iteration:  2604
 C         0.090481        -0.090517         0.358588
 C         1.149711         0.246376        -0.662951
 C         0.804281        -0.112604        -2.129623
 C         1.685411         0.937565        -3.061122
 C         1.268206         1.538435        -4.317569
 O         2.365179         0.487343        -4.296858
 C         2.534749         1.663455        -2.020585
 C         2.202310         1.308683        -0.622747
 O         2.504257        -0.074527        -0.313931
 H        -1.115803        -0.203642         0.111619
 H         0.478344        -1.099084         0.741854
 H         0.292839         0.568840         1.160790
 H         1.063061        -1.186712        -2.165771
 H        -0.162361         0.147222        -2.489397
 H         0.310635         1.125841        -4.708998
 H         1.610246         2.579761        -4.574517
 H         3.496529         1.204656        -2.479382
 H         2.771004         2.741692        -2.231343
 H         2.373047         1.947548         0.262355
