19
Iteration:  1328
 C         0.039049        -0.016429         0.251431
 C         1.123889         0.341991        -0.740451
 C         0.910286        -0.079821        -2.170425
 C         1.778356         0.902429        -2.944410
 C         1.316551         1.599336        -4.065440
 O         2.095618         0.414376        -4.243746
 C         2.756816         1.632131        -2.018564
 C         2.198955         1.277293        -0.679777
 O         2.485876        -0.156768        -0.409814
 H         0.198959         0.283019         1.271487
 H        -1.036163         0.146587         0.034563
 H         0.062781        -1.185842         0.045252
 H         1.052294        -1.125993        -2.525471
 H        -0.159363        -0.118401        -2.497001
 H         0.203167         1.586008        -4.290182
 H         1.814611         2.454519        -4.491131
 H         3.885777         1.485360        -2.190277
 H         2.741676         2.751568        -2.212538
 H         2.291987         2.040415         0.108390
