19
Iteration:  1960charge 0 multiplicity 1
 C         0.060391         0.034210         0.457568
 C         1.208238         0.110623        -0.728161
 C         0.718322         0.107798        -2.168608
 C         1.635427         1.061331        -2.998724
 C         1.386207         1.313609        -4.372669
 O         2.434314         0.458987        -4.187110
 C         2.425231         1.890658        -1.886354
 C         2.200491         1.143008        -0.579264
 O         2.592686        -0.253650        -0.594619
 H        -0.869303        -0.554233         0.044534
 H         0.560337        -0.627744         1.289034
 H        -0.236787         0.955933         0.735613
 H         0.570516        -0.973372        -2.304449
 H        -0.236106         0.657371        -2.076204
 H         0.445063         0.819855        -4.797129
 H         1.621717         2.279147        -4.885597
 H         3.489340         1.985686        -2.260016
 H         2.020634         2.929727        -1.938663
 H         2.452685         1.623256         0.391029
