19
Iteration:  3533charge 0 multiplicity 1
 C         0.115379        -0.179122         0.377375
 C         1.144586         0.240920        -0.636754
 C         0.719507         0.019670        -2.074661
 C         1.601431         0.934882        -2.990099
 C         1.538313         1.630624        -4.335390
 O         2.254461         0.338713        -4.207390
 C         2.515203         1.724163        -2.041203
 C         2.238854         1.286054        -0.662564
 O         2.496802        -0.082648        -0.465870
 H         0.143646        -1.416291         0.403223
 H         0.363207         0.203522         1.319015
 H        -0.843661        -0.046550         0.049119
 H         0.974462        -1.035920        -2.398402
 H        -0.334760         0.125770        -2.306933
 H         0.563895         1.609377        -4.847200
 H         2.156904         2.530922        -4.576852
 H         3.591001         1.554210        -2.360216
 H         2.370689         2.842767        -2.009277
 H         2.362051         1.970814         0.241592
