19
Iteration:  4386charge 0 multiplicity 1
 C         0.339326        -0.433286         0.329061
 C         1.034826         0.267871        -0.710187
 C         0.531497         0.403513        -2.123497
 C         1.514302         1.199576        -2.905210
 C         1.548731         1.200153        -4.404927
 O         2.418681         0.256362        -3.750508
 C         2.434975         1.974357        -1.983351
 C         2.194548         1.310664        -0.654473
 O         2.506724        -0.108780        -0.829512
 H         0.689610        -1.533336         0.287020
 H         0.706862        -0.145053         1.388463
 H        -0.698185        -0.466445         0.361540
 H         0.473339        -0.562847        -2.529820
 H        -0.573994         0.629599        -2.130936
 H         0.776173         0.682872        -4.969833
 H         2.036273         1.848608        -5.091549
 H         3.485838         1.649663        -2.304521
 H         2.370047         3.024585        -2.112282
 H         2.594969         1.767404         0.199910
