19
Iteration:  1785charge 0 multiplicity 1
 C         0.334787        -0.155466         0.481394
 C         1.082932         0.221453        -0.810507
 C         0.452739         0.413264        -2.176139
 C         1.562859         1.042534        -2.966123
 C         1.575600         1.355876        -4.383206
 O         2.453805         0.301771        -3.887142
 C         2.356354         1.937646        -1.968937
 C         2.290777         1.095676        -0.690400
 O         2.495944        -0.308782        -0.723819
 H         0.994683         0.324070         1.316442
 H        -0.692201         0.247807         0.383212
 H         0.217782        -1.142703         0.653474
 H         0.187749        -0.569889        -2.496533
 H        -0.479152         0.959983        -2.170523
 H         0.667318         1.126486        -4.991885
 H         2.236770         2.110160        -4.804490
 H         3.325000         2.285090        -2.235037
 H         1.716077         2.701568        -1.623751
 H         2.611240         1.447776         0.289105
