19
Iteration:  4227
 C         0.198243        -0.169514         0.296664
 C         1.186003         0.154183        -0.706714
 C         0.707775         0.110057        -2.185790
 C         1.674933         0.979119        -3.001811
 C         1.390992         1.537456        -4.360068
 O         2.259285         0.390331        -4.046075
 C         2.503974         1.736008        -2.017525
 C         2.192448         1.244498        -0.624162
 O         2.553547        -0.096274        -0.401949
 H         0.336404        -1.270399         0.203550
 H         0.419425         0.192595         1.247924
 H        -0.881706         0.052275        -0.008120
 H         0.771342        -0.913049        -2.712348
 H        -0.296374         0.453412        -2.169819
 H         0.488104         1.241383        -4.912109
 H         2.009725         2.399087        -4.688024
 H         3.491735         1.546706        -2.366582
 H         2.130894         2.777594        -2.014297
 H         2.125820         2.035091         0.172155
