19
Iteration:  2579charge 0 multiplicity 1
 C         0.100235        -0.178466         0.322389
 C         1.141845         0.217377        -0.667570
 C         0.829784        -0.059458        -2.159932
 C         1.732575         0.952085        -2.965371
 C         1.324057         1.469004        -4.348953
 O         2.216659         0.464577        -4.207407
 C         2.634754         1.715818        -2.027974
 C         2.177561         1.295912        -0.695395
 O         2.494518        -0.032959        -0.281166
 H        -0.841233         0.467549         0.153286
 H        -0.045193        -1.221527         0.146481
 H         0.675909         0.076676         1.345743
 H         1.081635        -1.065302        -2.374548
 H        -0.247717         0.223974        -2.433222
 H         0.348223         1.200744        -4.747031
 H         1.820060         2.374566        -4.669623
 H         3.629828         1.607979        -2.545109
 H         2.437013         2.760586        -2.263598
 H         2.320411         2.045251         0.109143
