19
Iteration:  3870charge 0 multiplicity 1
 C         0.204912        -0.441288         0.374214
 C         1.144529         0.302541        -0.687113
 C         0.534600         0.313468        -2.067577
 C         1.452142         1.161945        -2.999239
 C         1.665187         1.252969        -4.506407
 O         2.322530         0.249804        -3.789277
 C         2.399784         2.015598        -2.015930
 C         2.280436         1.271273        -0.657518
 O         2.586409        -0.149705        -0.731463
 H        -0.300577        -1.286610        -0.044077
 H         0.741485        -0.778777         1.156966
 H        -0.515903         0.374585         0.730055
 H         0.387996        -0.661674        -2.398717
 H        -0.350877         0.925828        -1.866446
 H         0.871581         0.912592        -5.155031
 H         2.235544         2.063767        -4.946161
 H         3.440204         2.004009        -2.337005
 H         1.894020         2.963013        -2.031464
 H         2.725226         1.684238         0.323771
