19
Iteration:   683charge 0 multiplicity 1
 C         0.184971         0.030439         0.405402
 C         1.102378         0.203865        -0.762111
 C         0.735822         0.054751        -2.140552
 C         1.648422         0.989479        -2.974921
 C         1.457039         1.584698        -4.297829
 O         2.268016         0.482659        -4.261303
 C         2.622180         1.677300        -1.910668
 C         2.227695         1.123139        -0.652101
 O         2.430271        -0.304862        -0.457018
 H        -0.700697         0.644136         0.196173
 H        -0.195550        -0.932156         0.592862
 H         0.822582         0.472103         1.291214
 H         0.639841        -0.938023        -2.618074
 H        -0.311594         0.445851        -2.186573
 H         0.501158         1.263854        -4.706758
 H         1.815929         2.504383        -4.684328
 H         3.721424         1.540988        -2.226597
 H         2.345591         2.723668        -2.014747
 H         2.295661         1.779009         0.222547
