19
Iteration:  4594charge 0 multiplicity 1
 C         0.139236        -0.181188         0.463190
 C         1.129849         0.173401        -0.705129
 C         0.768361        -0.036650        -2.186534
 C         1.795852         0.903843        -3.033822
 C         1.231770         1.488605        -4.285107
 O         2.367374         0.574684        -4.310234
 C         2.609622         1.710309        -2.013662
 C         2.050109         1.255664        -0.640611
 O         2.508961        -0.064707        -0.365190
 H         0.235982        -1.286144         0.796917
 H         0.537609         0.320809         1.328428
 H        -0.816113         0.260298         0.188035
 H         0.846934        -1.082549        -2.432567
 H        -0.222357         0.233512        -2.545662
 H         0.317893         1.051950        -4.760801
 H         1.728602         2.461904        -4.509724
 H         3.777893         1.623100        -1.941318
 H         2.552909         2.812100        -2.212316
 H         2.171995         2.002903         0.094749
