19
Iteration:  2593charge 0 multiplicity 1
 C         0.128005        -0.151784         0.405764
 C         1.123528         0.303573        -0.678480
 C         0.812281        -0.027607        -2.176496
 C         1.637037         0.894417        -3.052591
 C         1.273841         1.520508        -4.335422
 O         2.333234         0.474882        -4.259111
 C         2.612033         1.671779        -2.114116
 C         2.231084         1.296242        -0.632919
 O         2.511082        -0.076916        -0.253570
 H        -1.018967         0.079579         0.012971
 H         0.093136        -1.283561         0.506112
 H         0.152417         0.181604         1.393286
 H         1.113263        -1.061753        -2.446356
 H        -0.252617        -0.079582        -2.329385
 H         0.413702         1.210830        -4.969750
 H         1.580931         2.585760        -4.507777
 H         3.711317         1.413187        -2.101506
 H         2.447557         2.781406        -2.144068
 H         2.290550         2.046907         0.184644
