19
Iteration:  4825charge 0 multiplicity 1
 C         0.318793        -0.286915         0.305564
 C         1.111559         0.274385        -0.834574
 C         0.525326         0.434269        -2.178383
 C         1.641363         1.131899        -2.935360
 C         1.435685         1.282693        -4.344519
 O         2.392138         0.267075        -3.766884
 C         2.383550         1.949166        -1.900424
 C         2.326987         1.181914        -0.651476
 O         2.474683        -0.235864        -0.775586
 H         0.358761         0.239320         1.188265
 H        -0.698665        -0.664841         0.170988
 H         0.825413        -1.283993         0.375841
 H         0.630988        -0.546657        -2.617399
 H        -0.447029         1.020860        -2.277355
 H         0.550030         0.697706        -4.675762
 H         1.874937         2.125128        -4.905715
 H         3.484310         2.039995        -2.200792
 H         1.942967         2.936598        -1.829548
 H         2.540636         1.647096         0.305234
