19
Iteration:  4978
 C         0.178097        -0.111756         0.457751
 C         1.169186         0.142934        -0.715184
 C         0.707923         0.058845        -2.175793
 C         1.618227         1.007093        -3.033056
 C         1.379966         1.586139        -4.420571
 O         2.362528         0.418811        -4.114440
 C         2.421220         1.907316        -2.003748
 C         2.238748         1.093771        -0.634169
 O         2.548535        -0.226207        -0.459246
 H         0.579664         0.046322         1.423371
 H        -0.601637         0.692672         0.323995
 H        -0.214873        -1.194395         0.438548
 H         0.875031        -0.966361        -2.511681
 H        -0.429855         0.208070        -2.220052
 H         0.452949         1.217076        -4.943705
 H         1.998852         2.485051        -4.732762
 H         3.531817         1.866533        -2.359530
 H         2.103262         2.916030        -1.873782
 H         2.421092         1.751458         0.313230
