19
Iteration:  3261
 C         0.297921        -0.163135         0.544616
 C         1.053459         0.249852        -0.713546
 C         0.557925         0.085708        -2.166675
 C         1.566779         0.927568        -2.971494
 C         1.489630         1.434531        -4.383366
 O         2.499194         0.463050        -4.021657
 C         2.483385         1.783941        -2.044739
 C         2.245960         1.243683        -0.703657
 O         2.409734        -0.137540        -0.636628
 H         0.476819        -1.285967         0.612304
 H         0.708045         0.082036         1.529103
 H        -0.766512         0.259651         0.570802
 H         0.485798        -0.952935        -2.400651
 H        -0.501238         0.483679        -2.233623
 H         0.658726         1.088398        -5.024272
 H         1.896206         2.398204        -4.652649
 H         3.563963         1.801345        -2.311579
 H         2.000985         2.759270        -2.142786
 H         2.445580         1.735170         0.230182
