19
Iteration:   984charge 0 multiplicity 1
 C         0.078044        -0.081515         0.344115
 C         1.074388         0.211758        -0.748695
 C         0.800247         0.028831        -2.200813
 C         1.793765         0.941427        -3.013559
 C         1.340322         1.679851        -4.187698
 O         2.153737         0.390673        -4.279968
 C         2.699781         1.606060        -2.052789
 C         2.191856         1.248258        -0.633240
 O         2.524126        -0.140425        -0.308714
 H         0.430675         0.170201         1.390302
 H        -0.957616         0.335553         0.109238
 H        -0.084123        -1.096632         0.404498
 H         0.997170        -1.000864        -2.540429
 H        -0.260207         0.296734        -2.307470
 H         0.321815         1.675382        -4.724300
 H         1.947633         2.595993        -4.405271
 H         3.696518         1.093281        -2.062525
 H         2.910703         2.693563        -2.361192
 H         2.257230         1.936148         0.210420
