19
Iteration:  4049
 C         0.110232        -0.138771         0.313636
 C         1.189077         0.256166        -0.690412
 C         0.786897        -0.045036        -2.166364
 C         1.629993         0.984486        -3.027587
 C         1.261311         1.513561        -4.353525
 O         2.331913         0.548789        -4.152640
 C         2.591967         1.615588        -2.084276
 C         2.187047         1.321553        -0.610455
 O         2.526700        -0.122129        -0.295197
 H        -0.662048        -0.859655        -0.096209
 H         0.852071        -0.674671         1.076807
 H        -0.379083         0.717742         0.670424
 H         0.922498        -1.252976        -2.277156
 H        -0.278219        -0.109518        -2.250607
 H         0.354676         1.081206        -4.912675
 H         1.730598         2.421534        -4.873263
 H         3.718559         1.414682        -2.167119
 H         2.714096         2.658466        -2.334511
 H         2.061486         2.017088         0.146961
