19
Iteration:  3736charge 0 multiplicity 1
 C         0.161124        -0.171577         0.434985
 C         1.116004         0.117755        -0.721718
 C         0.689587         0.199422        -2.192342
 C         1.715943         1.062800        -2.958052
 C         1.393846         1.381630        -4.374437
 O         2.331233         0.292903        -4.050242
 C         2.529682         1.917621        -1.910952
 C         2.162720         1.297528        -0.623577
 O         2.565192        -0.225093        -0.660372
 H         0.359853        -1.185403         0.716343
 H         0.176823         0.452916         1.409485
 H        -0.859396         0.082434         0.235290
 H         0.484707        -0.748624        -2.565576
 H        -0.185229         0.815859        -2.430129
 H         0.431885         1.181740        -4.850031
 H         1.939245         2.229064        -4.794099
 H         3.595861         1.980541        -2.117447
 H         2.111262         2.934715        -1.995986
 H         2.231860         1.820202         0.294150
