19
Iteration:  3092
 C         0.069643        -0.121469         0.272996
 C         1.194544         0.285961        -0.649903
 C         0.740257         0.058035        -2.138534
 C         1.641175         0.918921        -2.984037
 C         1.345159         1.515090        -4.315284
 O         2.287908         0.424253        -4.155416
 C         2.557185         1.840958        -2.022702
 C         2.322884         1.242632        -0.597108
 O         2.530317        -0.233515        -0.497940
 H         0.294349        -1.002355         0.963989
 H        -0.108449         0.619244         1.090994
 H        -0.918097        -0.244834        -0.189030
 H         0.869996        -1.061485        -2.121129
 H        -0.379965         0.232107        -2.306445
 H         0.407214         1.157226        -4.797105
 H         1.760077         2.444344        -4.721083
 H         3.576043         1.594006        -2.303447
 H         2.201006         2.822925        -1.972466
 H         2.611244         1.826123         0.403180
