19
Iteration:   923
 C        -0.027204         0.219191         0.162526
 C         1.221582         0.118304        -0.726175
 C         0.957647        -0.210407        -2.232235
 C         1.774000         0.869843        -2.936512
 C         1.129726         1.592423        -4.089698
 O         2.152100         0.730810        -4.400379
 C         2.791307         1.418339        -2.037695
 C         2.224052         1.154364        -0.633303
 O         2.486435        -0.120216        -0.159423
 H         0.015660         1.018466         1.016128
 H        -0.816664         0.630310        -0.389984
 H        -0.282251        -0.868885         0.568763
 H         1.358084        -1.196103        -2.550963
 H        -0.115365        -0.390189        -2.370574
 H         0.167166         1.298128        -4.375572
 H         1.330823         2.651774        -4.150806
 H         3.816879         1.002920        -2.068275
 H         2.919905         2.420485        -2.393406
 H         2.385133         2.044230        -0.025538
