19
Iteration:  1065charge 0 multiplicity 1
 C         0.235834        -0.066228         0.514409
 C         1.099140         0.312214        -0.757813
 C         0.589222         0.289169        -2.193766
 C         1.640261         1.052085        -2.896598
 C         1.514342         1.281492        -4.347756
 O         2.448792         0.341358        -3.916221
 C         2.371123         1.939214        -1.912456
 C         2.246403         1.139721        -0.646640
 O         2.458670        -0.372896        -0.897442
 H         0.982309        -0.246826         1.352377
 H        -0.333985         0.768129         0.850999
 H        -0.467016        -0.950268         0.335219
 H         0.444041        -0.732610        -2.570108
 H        -0.387584         0.782683        -2.407822
 H         0.623581         0.954504        -4.850671
 H         1.901752         2.266293        -4.577999
 H         3.459269         2.086686        -2.188727
 H         1.985837         2.966622        -1.904461
 H         2.768351         1.547308         0.242107
