19
Iteration:  1390charge 0 multiplicity 1
 C         0.032290         0.106953         0.334180
 C         1.138646         0.137782        -0.763316
 C         0.898316        -0.222174        -2.185438
 C         1.664989         0.837740        -3.003815
 C         1.135095         1.611503        -4.212508
 O         2.312438         0.735850        -4.358249
 C         2.738548         1.453186        -2.085833
 C         2.280941         1.239131        -0.635363
 O         2.457588        -0.112059        -0.177095
 H         0.411308         0.706236         1.366189
 H        -0.871379         0.550977        -0.136994
 H        -0.251300        -0.847847         0.615578
 H         1.213417        -1.215078        -2.515316
 H        -0.180295        -0.058349        -2.249611
 H         0.191295         1.231429        -4.703544
 H         1.360103         2.676406        -4.382445
 H         3.668601         0.905991        -2.289834
 H         2.987636         2.445064        -2.370318
 H         2.334896         1.982208         0.240901
