19
Iteration:  1475charge 0 multiplicity 1
 C        -0.051015         0.121179         0.160192
 C         1.247815         0.174669        -0.721824
 C         1.083545        -0.246537        -2.212600
 C         1.742578         0.888094        -3.012498
 C         1.058858         1.658146        -4.079152
 O         2.127754         0.693077        -4.337033
 C         2.784494         1.408130        -2.104609
 C         2.265800         1.255759        -0.727285
 O         2.474995        -0.099973        -0.048170
 H        -0.007988         0.302745         1.182615
 H        -0.778981         0.838360        -0.161076
 H        -0.530035        -0.918603         0.006920
 H         1.428937        -1.294886        -2.329982
 H         0.025714        -0.334032        -2.470898
 H         0.080594         1.329911        -4.448150
 H         1.417846         2.664052        -4.201753
 H         3.571928         0.683986        -2.384711
 H         2.946445         2.483418        -2.362345
 H         2.466473         1.973373         0.096717
