19
Iteration:   904
 C        -0.039388         0.354393         0.057314
 C         1.245613         0.143958        -0.761341
 C         1.085568        -0.378367        -2.171575
 C         1.739674         0.848392        -3.063947
 C         0.999967         1.725146        -4.006298
 O         2.124153         0.672710        -4.369336
 C         2.796546         1.477793        -1.979577
 C         2.263717         1.171000        -0.652410
 O         2.517081        -0.201271        -0.088363
 H         0.223983         0.790258         0.904139
 H        -0.783071         0.946124        -0.537455
 H        -0.632912        -0.708422         0.177733
 H         1.588840        -1.371660        -2.287609
 H         0.029788        -0.480662        -2.591951
 H         0.128495         1.304406        -4.577399
 H         1.313331         2.778076        -4.246295
 H         3.638817         0.784622        -2.308734
 H         2.884698         2.644574        -2.002998
 H         2.099248         1.984714         0.119432
