19
Iteration:  2906
 C         0.253770        -0.330617         0.399649
 C         1.120970         0.290453        -0.705839
 C         0.499659         0.481603        -2.152712
 C         1.685057         1.109096        -2.912949
 C         1.603685         1.352222        -4.353358
 O         2.284719         0.133811        -3.792639
 C         2.401467         1.977931        -1.949591
 C         2.295738         1.207106        -0.677564
 O         2.500133        -0.234989        -0.883700
 H         0.188959         0.310509         1.255268
 H        -0.729021        -0.608304         0.024130
 H         0.745112        -1.382452         0.636827
 H         0.153440        -0.451615        -2.618890
 H        -0.402144         1.017611        -1.947030
 H         0.639964         1.165771        -4.860227
 H         2.291011         1.998690        -4.927062
 H         3.495819         2.083011        -2.256002
 H         1.935310         3.062742        -2.160981
 H         2.649858         1.682188         0.286637
