19
Iteration:  3377charge 0 multiplicity 1
 C         0.402578        -0.300531         0.452784
 C         1.035863         0.270988        -0.811618
 C         0.486110         0.372216        -2.156456
 C         1.665495         1.062278        -2.909772
 C         1.605455         1.200712        -4.392303
 O         2.425386         0.291288        -3.801680
 C         2.398381         1.996004        -1.941577
 C         2.172478         1.250171        -0.680619
 O         2.393933        -0.174268        -0.841269
 H        -0.079565        -1.300325         0.280878
 H         1.283056        -0.617439         1.137932
 H        -0.140252         0.520034         0.939551
 H         0.404013        -0.689024        -2.573604
 H        -0.375687         0.973654        -2.153618
 H         0.707783         0.748440        -4.864414
 H         2.098431         2.005147        -4.956849
 H         3.505562         2.038897        -2.196138
 H         1.761316         2.922776        -1.960048
 H         2.376492         1.624153         0.288036
