19
Iteration:  3351
 C         0.188159        -0.426534         0.353759
 C         1.140262         0.307502        -0.719362
 C         0.505372         0.415544        -2.089472
 C         1.570745         1.059107        -2.966991
 C         1.506272         1.199362        -4.419895
 O         2.431060         0.253015        -3.779601
 C         2.398264         1.998066        -1.986569
 C         2.316059         1.293572        -0.679054
 O         2.535891        -0.131852        -0.787338
 H         0.062930        -1.438815         0.036468
 H         0.712824        -0.476586         1.305856
 H        -0.887761         0.211700         0.407807
 H         0.372820        -0.610129        -2.375319
 H        -0.289597         1.176435        -2.014108
 H         0.701358         0.744050        -4.987429
 H         2.045950         2.058363        -4.836473
 H         3.382655         1.828972        -2.385472
 H         1.926003         3.028278        -1.851582
 H         2.853429         1.700473         0.246016
