19
Iteration:   740
 C        -0.019700         0.208169         0.186765
 C         1.148134         0.229439        -0.730621
 C         0.950281        -0.169802        -2.184975
 C         1.784570         0.804452        -2.991256
 C         1.081764         1.647977        -4.090366
 O         2.181585         0.640318        -4.299421
 C         2.863604         1.554381        -1.984621
 C         2.302940         1.186204        -0.626843
 O         2.439423        -0.243920        -0.319660
 H        -0.315814         1.159010         0.462896
 H        -0.865373        -0.297740        -0.433165
 H        -0.030914        -0.524827         1.115466
 H         1.375838        -1.162987        -2.374675
 H        -0.117494        -0.156189        -2.486373
 H         0.149260         1.188166        -4.454656
 H         1.257627         2.734786        -4.366822
 H         3.847544         1.078041        -2.103777
 H         2.793456         2.642009        -2.269966
 H         2.481024         1.790791         0.263671
