19
Iteration:  3541charge 0 multiplicity 1
 C         0.153192        -0.158941         0.357460
 C         1.094481         0.252277        -0.632636
 C         0.742623        -0.026324        -2.162916
 C         1.665972         0.984383        -2.972908
 C         1.474224         1.565582        -4.350036
 O         2.229485         0.358974        -4.227422
 C         2.519905         1.777142        -1.969069
 C         2.238109         1.237117        -0.627998
 O         2.532383        -0.095704        -0.468146
 H        -0.013750        -1.150489         0.549429
 H         0.337441         0.231752         1.400798
 H        -0.879225         0.186141         0.020594
 H         1.139616        -1.061826        -2.408291
 H        -0.402930         0.157979        -2.186277
 H         0.542609         1.706704        -4.922706
 H         2.222476         2.340257        -4.516068
 H         3.568750         1.447149        -2.174654
 H         2.274683         2.799138        -2.203042
 H         2.207905         1.876765         0.246508
