19
Iteration:  4983
 C         0.201961        -0.119442         0.472798
 C         1.108758         0.171045        -0.716873
 C         0.738781         0.051991        -2.179542
 C         1.679928         1.029840        -3.001535
 C         1.390986         1.599811        -4.434240
 O         2.323234         0.418136        -4.126751
 C         2.406904         1.844120        -2.029920
 C         2.217253         1.160963        -0.590915
 O         2.558717        -0.257816        -0.487130
 H         0.674048         0.157906         1.475750
 H        -0.635198         0.553020         0.303920
 H        -0.085295        -1.125308         0.412530
 H         0.887470        -1.027842        -2.467101
 H        -0.337498         0.168429        -2.242630
 H         0.569333         1.300641        -5.034075
 H         1.965827         2.430284        -4.728973
 H         3.429894         1.701416        -2.161454
 H         2.059627         2.906266        -1.831528
 H         2.278394         1.826771         0.238456
