19
Iteration:  3301charge 0 multiplicity 1
 C         0.289019        -0.283938         0.396745
 C         1.112114         0.199006        -0.763744
 C         0.559169         0.289073        -2.198609
 C         1.708924         1.083766        -2.956292
 C         1.508123         1.309359        -4.408859
 O         2.276198         0.227912        -3.944941
 C         2.489390         1.947670        -1.952898
 C         2.160667         1.230060        -0.572165
 O         2.537023        -0.093125        -0.667628
 H         0.538668        -1.388051         0.642605
 H         0.554018         0.350219         1.300469
 H        -0.708135        -0.255007         0.118641
 H         0.437716        -0.690448        -2.749503
 H        -0.337877         0.989678        -2.103787
 H         0.541760         1.035128        -4.847542
 H         2.083863         2.099073        -4.930252
 H         3.524191         2.114981        -2.319569
 H         1.907796         2.845694        -1.804041
 H         2.368517         1.758687         0.346216
