19
Iteration:  1191charge 0 multiplicity 1
 C         0.217488        -0.261390         0.374586
 C         1.196049         0.234473        -0.730736
 C         0.572611         0.409829        -2.154361
 C         1.524135         1.181669        -3.032416
 C         1.518408         1.263258        -4.441197
 O         2.327784         0.243369        -3.927136
 C         2.481997         1.949986        -1.996389
 C         2.246028         1.132603        -0.635709
 O         2.542266        -0.213110        -0.574777
 H         0.752535        -0.043677         1.377853
 H        -0.769077         0.281198         0.340921
 H         0.072051        -1.349309         0.175411
 H         0.215356        -0.544178        -2.564531
 H        -0.324830         0.932377        -1.764798
 H         0.686338         0.978546        -5.091240
 H         2.051174         2.169216        -4.818364
 H         3.484477         1.919660        -2.343708
 H         2.037097         2.886084        -1.729737
 H         2.645660         1.675435         0.226320
