19
Iteration:  3425charge 0 multiplicity 1
 C         0.238457        -0.105476         0.432986
 C         1.148732         0.191338        -0.694093
 C         0.521086         0.157589        -2.054876
 C         1.498035         1.031461        -3.019033
 C         1.621392         1.433116        -4.427698
 O         2.451869         0.267454        -3.799224
 C         2.270371         1.973931        -2.018270
 C         2.309653         1.178771        -0.709799
 O         2.526981        -0.249326        -0.801387
 H        -0.497191        -1.018358         0.227435
 H         0.865356        -0.479834         1.190609
 H        -0.148769         0.807433         0.780388
 H         0.264953        -0.731641        -2.610304
 H        -0.356581         0.919816        -1.969299
 H         0.922892         1.143581        -5.207487
 H         2.237138         2.321629        -4.630585
 H         3.290585         2.282817        -2.250477
 H         1.591355         2.823231        -1.896237
 H         2.729415         1.621442         0.245997
