19
Iteration:  1703charge 0 multiplicity 1
 C         0.035563        -0.095249         0.306482
 C         1.173869         0.209062        -0.697176
 C         0.777368         0.180389        -2.202222
 C         1.744897         1.018216        -2.937285
 C         1.282624         1.446133        -4.286332
 O         2.211607         0.423556        -4.246908
 C         2.717437         1.696064        -1.986476
 C         2.265014         1.200692        -0.601042
 O         2.512239        -0.194858        -0.400140
 H         0.186244         0.163353         1.301301
 H        -0.950129         0.386063         0.081530
 H        -0.110636        -1.305917         0.285269
 H         0.722972        -0.909458        -2.492318
 H        -0.214018         0.673296        -2.317327
 H         0.243042         1.101283        -4.487558
 H         1.519071         2.382922        -4.781503
 H         3.805525         1.593615        -2.305012
 H         2.597264         2.846949        -1.936481
 H         2.511668         1.863397         0.235740
