19
Iteration:  1438
 C        -0.114547         0.201269         0.120651
 C         1.148164         0.173998        -0.746095
 C         1.129413        -0.230519        -2.226582
 C         1.873906         0.897650        -2.921658
 C         1.115730         1.586050        -4.014359
 O         1.971787         0.476589        -4.368983
 C         2.820884         1.666987        -1.979175
 C         2.278953         1.251497        -0.608437
 O         2.500629        -0.199289        -0.280001
 H         0.251301         0.267414         1.166588
 H        -0.849043         0.958373        -0.263742
 H        -0.652121        -0.856687        -0.006748
 H         1.702848        -1.147386        -2.474967
 H         0.160610        -0.189227        -2.779500
 H         0.040223         1.417901        -4.038124
 H         1.427316         2.594383        -4.364095
 H         3.884997         1.469184        -2.258640
 H         2.908046         2.786313        -1.844815
 H         2.380571         2.015148         0.140053
