19
Iteration:   654
 C         0.147391        -0.194743         0.494671
 C         1.047975         0.315683        -0.694064
 C         0.601189         0.298229        -2.178559
 C         1.693227         0.988260        -2.933772
 C         1.462033         1.496937        -4.315111
 O         2.311459         0.376309        -4.022545
 C         2.649061         1.695418        -1.976610
 C         2.301808         1.152445        -0.691017
 O         2.441624        -0.240342        -0.705007
 H        -0.851706        -0.114921         0.132228
 H         0.255110        -1.342486         0.736427
 H         0.255088         0.540197         1.334853
 H         0.455125        -0.713544        -2.547440
 H        -0.323580         0.902370        -2.297554
 H         0.529954         1.183932        -4.868553
 H         1.955823         2.433210        -4.764534
 H         3.651912         1.693378        -2.277596
 H         2.430729         2.795193        -2.071545
 H         2.609641         1.735197         0.179337
