19
Iteration:  3130charge 0 multiplicity 1
 C         0.243933        -0.109080         0.493929
 C         1.109984         0.152754        -0.785419
 C         0.675560        -0.020481        -2.215974
 C         1.748182         0.917798        -3.016436
 C         1.415506         1.594020        -4.322615
 O         2.246627         0.419962        -4.199022
 C         2.591806         1.762165        -1.973821
 C         2.079329         1.288504        -0.654922
 O         2.497326        -0.155318        -0.383571
 H         0.252248        -1.229205         0.666289
 H         0.740048         0.623954         1.190218
 H        -0.862490         0.158944         0.326212
 H         0.951071        -1.011474        -2.550738
 H        -0.304350         0.319625        -2.438482
 H         0.459597         1.413529        -4.797390
 H         1.879217         2.538168        -4.625915
 H         3.663942         1.403481        -2.251519
 H         2.727354         2.902853        -2.244737
 H         2.063768         1.934712         0.135083
