19
Iteration:  4805
 C         0.232570        -0.359201         0.392065
 C         1.159315         0.242106        -0.744938
 C         0.517988         0.355104        -2.122735
 C         1.586354         1.165023        -2.917880
 C         1.444589         1.188935        -4.403182
 O         2.453715         0.383969        -3.811640
 C         2.497369         2.047418        -1.974286
 C         2.269208         1.153198        -0.672785
 O         2.480969        -0.254221        -0.805003
 H         0.100105         0.379997         1.123770
 H        -0.815118        -0.390315        -0.085127
 H         0.447044        -1.414134         0.787526
 H         0.124421        -0.538212        -2.623870
 H        -0.204315         1.163386        -1.861058
 H         0.560022         0.673087        -4.841172
 H         1.866585         2.024309        -4.978640
 H         3.539026         2.172945        -2.424921
 H         2.021227         3.105073        -1.810058
 H         2.773551         1.554221         0.287493
