19
Iteration:    38charge 0 multiplicity 1
 C         0.270921        -0.352397         0.248938
 C         1.108182         0.252938        -0.761854
 C         0.441175         0.761853        -2.070064
 C         1.596701         1.208496        -2.874674
 C         1.680718         1.243684        -4.406763
 O         2.238362         0.135606        -3.676159
 C         2.434088         1.992411        -1.920023
 C         2.395932         1.075125        -0.585304
 O         2.455195        -0.325388        -0.999739
 H         0.432547        -1.436856         0.376469
 H         0.681456         0.002589         1.155307
 H        -0.857016        -0.018392         0.254205
 H        -0.152114        -0.042392        -2.507193
 H        -0.191546         1.644357        -1.843856
 H         0.651930         1.016580        -4.910491
 H         2.417810         1.920258        -4.966497
 H         3.486747         1.730366        -2.273686
 H         2.118563         3.066906        -1.975307
 H         3.026298         1.277334         0.323846
