19
Iteration:  2136charge 0 multiplicity 1
 C         0.100339         0.136393         0.318565
 C         1.203460         0.073757        -0.789458
 C         0.886071        -0.136027        -2.229282
 C         1.706542         0.855832        -3.024370
 C         1.209602         1.456009        -4.247031
 O         2.338292         0.577504        -4.216259
 C         2.571136         1.811182        -1.955364
 C         2.160705         1.242517        -0.624300
 O         2.548211        -0.191836        -0.278020
 H        -0.616635         0.981551         0.168624
 H        -0.538967        -0.865012         0.130368
 H         0.480639         0.197759         1.239671
 H         1.107273        -1.216090        -2.592553
 H        -0.174186        -0.139467        -2.571054
 H         0.354271         0.837313        -4.590357
 H         1.270027         2.533759        -4.605148
 H         3.637340         1.863677        -2.406980
 H         2.092810         2.833410        -2.111821
 H         2.010189         1.846590         0.251859
