19
Iteration:  1994charge 0 multiplicity 1
 C         0.138836        -0.030040         0.312358
 C         1.094214         0.223984        -0.743897
 C         0.764333        -0.036814        -2.231696
 C         1.678252         0.966336        -2.901575
 C         1.318082         1.469071        -4.306717
 O         2.331033         0.444370        -4.090433
 C         2.575951         1.770175        -1.995510
 C         2.258680         1.258346        -0.630175
 O         2.525333        -0.165963        -0.468215
 H        -0.860758        -0.400985        -0.069224
 H         0.566376        -1.084567         0.824546
 H        -0.020785         0.653581         1.060185
 H         0.779255        -1.165619        -2.348563
 H        -0.287517         0.101629        -2.514918
 H         0.260111         1.214438        -4.632666
 H         1.758894         2.467179        -4.672971
 H         3.495552         1.930202        -2.620571
 H         2.075866         2.774731        -1.961509
 H         2.447434         1.923975         0.226237
