19
Iteration:  4927
 C         0.069371        -0.165302         0.419816
 C         1.182047         0.221560        -0.760793
 C         0.680901         0.145515        -2.178431
 C         1.696479         1.081254        -2.919893
 C         1.326847         1.266347        -4.296680
 O         2.414595         0.412334        -4.044770
 C         2.505908         1.953401        -1.892933
 C         2.235133         1.171512        -0.584790
 O         2.546449        -0.203942        -0.779826
 H         0.560694        -0.518258         1.338841
 H        -0.479023         0.769119         0.705387
 H        -0.622739        -0.958075         0.185549
 H         0.800726        -0.843588        -2.690383
 H        -0.357720         0.513593        -2.209547
 H         0.464467         0.775339        -4.697780
 H         1.533007         2.187586        -4.820005
 H         3.520956         2.148025        -2.159634
 H         2.080152         3.030886        -1.790024
 H         2.621201         1.787043         0.271325
