19
Iteration:  2049
 C         0.181491        -0.145294         0.335334
 C         1.089370         0.169446        -0.796706
 C         0.787298        -0.012635        -2.272255
 C         1.721924         0.896182        -2.962789
 C         1.298084         1.532074        -4.283231
 O         2.268681         0.422674        -4.262937
 C         2.678144         1.690179        -1.964935
 C         2.107810         1.292479        -0.656000
 O         2.527799         0.020348        -0.228999
 H        -0.677720         0.516113         0.367134
 H        -0.251498        -1.300594         0.374507
 H         0.727537        -0.227349         1.213242
 H         0.900335        -1.156604        -2.372285
 H        -0.285131         0.257016        -2.418014
 H         0.339929         1.268763        -4.807248
 H         1.552682         2.651044        -4.505831
 H         3.683312         1.215616        -2.240879
 H         2.693321         2.795225        -2.159337
 H         2.055983         2.149198         0.012071
