19
Iteration:   482charge 0 multiplicity 1
 C         0.090474        -0.022699         0.348106
 C         1.137441         0.251798        -0.669646
 C         0.617863         0.216399        -2.108487
 C         1.748738         1.031910        -2.972753
 C         1.456842         1.662406        -4.329621
 O         2.162251         0.370018        -4.082608
 C         2.701072         1.703987        -1.994569
 C         2.323029         1.116399        -0.693742
 O         2.430022        -0.393577        -0.563525
 H         0.344325        -1.150456         0.501808
 H         0.145832         0.520716         1.349127
 H        -0.856888        -0.007183        -0.063783
 H         0.551192        -0.817097        -2.472938
 H        -0.382449         0.696912        -2.062699
 H         0.487888         1.598679        -4.760377
 H         2.136578         2.389150        -4.766774
 H         3.772817         1.688381        -2.273071
 H         2.526090         2.787543        -1.935831
 H         2.736486         1.459897         0.252178
