19
Iteration:  2450
 C         0.289954        -0.145747         0.376231
 C         1.102249         0.261304        -0.756685
 C         0.577810         0.165416        -2.195888
 C         1.646519         0.948520        -2.970121
 C         1.473348         1.342379        -4.315678
 O         2.426018         0.249423        -3.892067
 C         2.366351         1.982116        -1.952892
 C         2.211292         1.249922        -0.660537
 O         2.548037        -0.140877        -0.730231
 H        -0.791052         0.297229         0.275079
 H         0.165711        -1.178877         0.462548
 H         0.629824         0.180483         1.328041
 H         0.431358        -0.856003        -2.536171
 H        -0.438913         0.503308        -2.076900
 H         0.613738         0.952350        -4.886375
 H         1.969837         2.221116        -4.711823
 H         3.451926         2.088672        -2.193544
 H         1.859335         2.960830        -1.907395
 H         2.370938         1.762828         0.289556
