19
Iteration:  3027
 C         0.225440        -0.144278         0.526246
 C         1.109567         0.233102        -0.709565
 C         0.586827         0.160170        -2.163017
 C         1.603552         1.010323        -2.969261
 C         1.513952         1.465630        -4.374717
 O         2.389286         0.393167        -4.009887
 C         2.426019         1.792096        -2.021342
 C         2.249098         1.206852        -0.694330
 O         2.501975        -0.255324        -0.662438
 H         0.869735        -0.684399         1.305130
 H        -0.125293         0.797198         1.021658
 H        -0.739744        -0.559930         0.143449
 H         0.423030        -0.809636        -2.636856
 H        -0.400409         0.620122        -2.273161
 H         0.651793         1.166435        -5.007588
 H         2.038211         2.380855        -4.667404
 H         3.528327         1.850462        -2.169614
 H         2.273512         2.890966        -1.984688
 H         2.498518         1.768307         0.276997
