19
Iteration:  4252charge 0 multiplicity 1
 C         0.179603        -0.230015         0.391051
 C         1.115416         0.128588        -0.717367
 C         0.630921         0.213797        -2.154841
 C         1.741978         0.979594        -3.004151
 C         1.375448         1.350564        -4.386948
 O         2.401762         0.383541        -4.193901
 C         2.483064         1.952013        -1.974274
 C         2.179240         1.224567        -0.574912
 O         2.564370        -0.153327        -0.462943
 H        -0.182597        -1.219563         0.201051
 H         0.872137        -0.170594         1.266182
 H        -0.693859         0.517682         0.543854
 H         0.461439        -0.731464        -2.704122
 H        -0.359618         0.804234        -2.182196
 H         0.447153         0.988756        -4.755932
 H         1.692553         2.349146        -4.569261
 H         3.513659         1.737797        -2.189258
 H         2.092668         2.987075        -2.082699
 H         2.090379         1.939702         0.418761
