19
Iteration:  1687charge 0 multiplicity 1
 C        -0.007273        -0.122524         0.290375
 C         1.131363         0.241175        -0.666165
 C         0.798859         0.044022        -2.138298
 C         1.714403         1.027344        -3.058028
 C         1.180636         1.529053        -4.344179
 O         2.241669         0.430502        -4.290695
 C         2.709341         1.733963        -1.992774
 C         2.375805         1.215097        -0.570985
 O         2.534743        -0.206219        -0.279994
 H         0.375352        -0.035791         1.430064
 H        -0.720122         0.763351         0.075950
 H        -0.450163        -0.989472         0.046473
 H         0.890446        -0.904978        -2.650551
 H        -0.279862         0.263522        -2.258877
 H         0.199002         1.282385        -4.791758
 H         1.663615         2.473271        -4.682218
 H         3.664572         1.229138        -2.136532
 H         2.823902         2.798400        -2.075928
 H         2.425658         1.832938         0.320626
