19
Iteration:  3898
 C         0.356278        -0.329749         0.367370
 C         1.091711         0.231188        -0.797974
 C         0.495668         0.310710        -2.191449
 C         1.587041         1.038384        -2.963784
 C         1.549220         1.348915        -4.360272
 O         2.357766         0.217272        -3.839962
 C         2.420158         1.976139        -1.960144
 C         2.181245         1.282803        -0.640884
 O         2.543517        -0.152942        -0.706206
 H         0.117760        -1.441687         0.343456
 H         0.901682        -0.006583         1.373618
 H        -0.473822         0.333693         0.411548
 H         0.295373        -0.728847        -2.610829
 H        -0.379209         1.024608        -2.137968
 H         0.666869         1.079328        -4.974450
 H         2.134795         2.200038        -4.759334
 H         3.502667         1.895219        -2.144559
 H         1.974373         2.987032        -2.098957
 H         2.512921         1.641804         0.284836
