19
Iteration:   222charge 0 multiplicity 1
 C        -0.045031         0.177674         0.180810
 C         1.166204         0.211205        -0.734384
 C         0.944144        -0.084684        -2.169138
 C         1.781501         0.930046        -2.992058
 C         1.247021         1.778837        -3.991723
 O         2.105466         0.644372        -4.321100
 C         2.811253         1.423248        -2.078192
 C         2.294755         1.078710        -0.650781
 O         2.419405        -0.330211        -0.279542
 H        -0.585559        -0.847267         0.142136
 H         0.128853         0.539044         1.109248
 H        -0.719042         1.075165        -0.246990
 H         1.347200        -1.047365        -2.457783
 H        -0.150134        -0.128886        -2.354429
 H         0.195799         1.545934        -4.230039
 H         1.632667         2.786399        -4.165211
 H         3.797591         0.912174        -2.338621
 H         3.069347         2.403173        -2.398405
 H         2.332836         1.872004         0.161451
