19
Iteration:  4860charge 0 multiplicity 1
 C         0.235003        -0.374335         0.532737
 C         1.180405         0.192953        -0.768759
 C         0.541342         0.372030        -2.125567
 C         1.584420         1.010311        -2.932054
 C         1.661863         1.465844        -4.421321
 O         2.316045         0.227265        -3.914868
 C         2.380123         1.910102        -1.981939
 C         2.158201         1.231976        -0.707286
 O         2.553039        -0.135608        -0.767893
 H         0.648482        -0.036813         1.445136
 H        -0.825277         0.006902         0.385280
 H         0.447718        -1.463473         0.660264
 H         0.174263        -0.566175        -2.569444
 H        -0.448500         0.851185        -1.836110
 H         0.944767         1.298633        -5.231368
 H         2.248201         2.360227        -4.722408
 H         3.464304         2.017327        -2.182439
 H         1.890194         2.957267        -2.118945
 H         2.504993         1.715708         0.322196
