19
Iteration:  1891charge 0 multiplicity 1
 C         0.270714        -0.302483         0.482574
 C         1.045169         0.269668        -0.717043
 C         0.546529         0.352430        -2.146494
 C         1.612269         1.019299        -2.980444
 C         1.648106         1.377491        -4.437524
 O         2.300191         0.190196        -3.891457
 C         2.366670         1.901471        -1.924267
 C         2.213958         1.211343        -0.607962
 O         2.578126        -0.115152        -0.840278
 H         0.633277        -1.266896         0.913459
 H         0.518456         0.386014         1.158958
 H        -0.862687        -0.368682         0.404146
 H         0.313895        -0.449392        -2.801678
 H        -0.347706         1.059236        -1.970300
 H         0.822421         1.038639        -5.022957
 H         2.229512         2.208592        -4.805291
 H         3.474230         1.842413        -2.114993
 H         2.138843         3.001632        -2.049379
 H         2.434455         1.710586         0.347371
