19
Iteration:  4605
 C         0.232654        -0.123853         0.447796
 C         1.073995         0.183275        -0.727800
 C         0.793740        -0.034778        -2.236338
 C         1.790545         0.799174        -3.060625
 C         1.275418         1.575923        -4.238326
 O         2.405076         0.566043        -4.281094
 C         2.495018         1.701542        -2.038021
 C         2.129562         1.300695        -0.653440
 O         2.485363        -0.113573        -0.317453
 H         0.272382        -1.230194         0.809804
 H         0.420799         0.591228         1.208971
 H        -0.853504        -0.158976         0.320930
 H         0.831109        -1.091285        -2.388371
 H        -0.248616         0.287523        -2.276648
 H         0.386248         1.201153        -4.811576
 H         1.385247         2.650334        -4.574317
 H         3.638885         1.389853        -2.139686
 H         2.260256         2.747266        -2.318857
 H         2.026631         1.875279         0.207324
