19
Iteration:  1257
 C         0.212197         0.078302         0.569358
 C         1.142987         0.189047        -0.728569
 C         0.701865        -0.000382        -2.231510
 C         1.648248         0.970915        -3.021849
 C         1.300968         1.474285        -4.382788
 O         2.439820         0.510729        -4.137605
 C         2.583240         1.709394        -1.992934
 C         2.177135         1.180434        -0.660705
 O         2.439085        -0.282509        -0.480234
 H         0.836285         0.047015         1.536548
 H        -0.559480         0.876840         0.706398
 H        -0.450483        -0.717845         0.308562
 H         0.698263        -1.041221        -2.572152
 H        -0.273414         0.244323        -2.656335
 H         0.413665         1.156433        -4.931953
 H         1.625315         2.504332        -4.682406
 H         3.608259         1.868282        -2.249844
 H         2.207519         2.725571        -2.020593
 H         2.486066         1.774613         0.217344
