19
Iteration:  1456
 C        -0.031854         0.132502         0.011018
 C         1.246438         0.239729        -0.741890
 C         1.063759        -0.217560        -2.205238
 C         1.749293         0.903768        -2.968355
 C         1.070101         1.621730        -4.060658
 O         2.014307         0.547972        -4.411116
 C         2.845534         1.573933        -1.987787
 C         2.282642         1.158663        -0.581946
 O         2.495761        -0.132960        -0.130097
 H         0.158722         0.232119         1.222177
 H        -0.616211         1.019600        -0.275206
 H        -0.546967        -0.726603        -0.097412
 H         1.665900        -1.120868        -2.275563
 H        -0.000827        -0.350924        -2.388839
 H         0.011039         1.350728        -4.337301
 H         1.457347         2.598868        -4.347158
 H         3.850904         1.150242        -1.985544
 H         2.799877         2.603351        -2.261422
 H         2.194167         1.971680         0.208629
