19
Iteration:  2169
 C         0.042478        -0.044932         0.348077
 C         1.151035         0.200534        -0.649717
 C         0.839061        -0.115905        -2.139952
 C         1.659119         0.872196        -2.976809
 C         1.326256         1.536970        -4.312618
 O         2.335034         0.530582        -4.261634
 C         2.597726         1.708902        -2.048892
 C         2.174972         1.305664        -0.613426
 O         2.520746        -0.114579        -0.398546
 H        -0.964531         0.222690        -0.003854
 H         0.052803        -1.158429         0.702392
 H         0.235264         0.417619         1.234610
 H         1.301671        -1.158551        -2.303621
 H        -0.232313        -0.105884        -2.423997
 H         0.450014         1.167604        -4.884215
 H         1.497323         2.637646        -4.457352
 H         3.630147         1.414264        -2.437833
 H         2.524022         2.821739        -2.066160
 H         2.178581         1.850087         0.304455
