19
Iteration:  3669
 C         0.113049        -0.141340         0.388637
 C         1.151107         0.216667        -0.711428
 C         0.792464         0.027094        -2.196368
 C         1.699850         0.921594        -2.976914
 C         1.377657         1.512271        -4.270120
 O         2.292889         0.345794        -4.248930
 C         2.592979         1.796697        -1.949565
 C         2.091501         1.273885        -0.621905
 O         2.543476        -0.093526        -0.475847
 H        -0.114212        -1.250923         0.291954
 H         0.392731         0.182735         1.477631
 H        -0.820722         0.490336         0.327310
 H         0.776640        -0.964096        -2.533029
 H        -0.253586         0.301612        -2.331364
 H         0.392020         1.432695        -4.762236
 H         1.968817         2.370525        -4.585077
 H         3.657478         1.647783        -2.159698
 H         2.533845         2.912202        -1.941243
 H         2.114973         1.875679         0.242144
