19
Iteration:   162
 C         0.107999         0.060236         0.508116
 C         1.049382         0.249043        -0.693140
 C         0.654746         0.134138        -2.231138
 C         1.697619         1.040882        -2.956475
 C         1.418126         1.578534        -4.331273
 O         2.333062         0.476258        -4.100778
 C         2.635181         1.723034        -1.988795
 C         2.362844         1.035655        -0.662781
 O         2.397335        -0.391954        -0.612861
 H        -0.731152        -0.562236         0.220021
 H         0.660218        -0.624067         1.351217
 H        -0.271621         0.946587         0.890016
 H         0.777225        -0.851060        -2.739379
 H        -0.392948         0.476055        -2.280900
 H         0.502737         1.304323        -4.820741
 H         1.750504         2.581834        -4.638328
 H         3.639772         1.515931        -2.305741
 H         2.368434         2.815266        -1.849827
 H         2.748414         1.504269         0.235613
