19
Iteration:  4551charge 0 multiplicity 1
 C         0.093367        -0.135374         0.161444
 C         1.189390         0.294440        -0.726649
 C         0.922308        -0.034700        -2.164628
 C         1.642064         0.991900        -2.906467
 C         1.227287         1.472746        -4.337718
 O         2.228745         0.418011        -4.093917
 C         2.569716         1.774376        -1.985724
 C         2.211995         1.284090        -0.656751
 O         2.603125        -0.126839        -0.347811
 H        -0.459180        -1.012185        -0.404927
 H         0.328970        -0.643155         1.090088
 H        -0.708001         0.643237         0.379769
 H         1.122524        -1.053543        -2.440870
 H        -0.130686        -0.214745        -2.374919
 H         0.288866         0.980679        -4.639900
 H         1.647251         2.490250        -4.551855
 H         3.615337         2.033429        -2.378329
 H         2.185797         2.806159        -2.022205
 H         2.381347         1.866989         0.199141
