19
Iteration:  1039charge 0 multiplicity 1
 C         0.129535        -0.083210         0.444965
 C         1.096533         0.291905        -0.749606
 C         0.689546         0.140594        -2.157679
 C         1.725343         1.058452        -2.960001
 C         1.367504         1.370312        -4.390816
 O         2.369531         0.429855        -4.011263
 C         2.551100         1.827772        -1.945596
 C         2.323004         1.154435        -0.657045
 O         2.431297        -0.315871        -0.656705
 H         0.658520        -0.241272         1.450592
 H        -0.498645         0.825000         0.641807
 H        -0.477066        -0.869439         0.233270
 H         0.657545        -0.901204        -2.494437
 H        -0.327684         0.499661        -2.352761
 H         0.376231         1.006139        -4.816700
 H         1.804014         2.325641        -4.802455
 H         3.563589         2.125582        -2.238385
 H         2.143404         2.894105        -1.816319
 H         2.550048         1.701547         0.250837
