19
Iteration:  2109charge 0 multiplicity 1
 C        -0.012410         0.069332         0.290049
 C         1.149798         0.237207        -0.741026
 C         1.019234        -0.146902        -2.189973
 C         1.721549         0.942623        -3.007135
 C         1.191008         1.444518        -4.269109
 O         2.308571         0.523507        -4.210075
 C         2.501293         1.769065        -1.968591
 C         2.239904         1.231344        -0.587767
 O         2.534577        -0.185555        -0.377234
 H        -0.609745         1.002050         0.580967
 H        -0.622107        -0.627948        -0.143709
 H         0.477971        -0.328018         1.299536
 H         1.515872        -1.084395        -2.294836
 H         0.075735        -0.296871        -2.729375
 H         0.277705         0.898071        -4.429765
 H         1.356998         2.361799        -4.759333
 H         3.467235         1.671749        -2.395643
 H         2.270913         2.845544        -1.957651
 H         2.427812         1.907648         0.293377
