19
Iteration:  1330charge 0 multiplicity 1
 C         0.046488        -0.013368         0.275618
 C         1.137658         0.336243        -0.769363
 C         0.911434        -0.069928        -2.168107
 C         1.769459         0.878571        -2.953193
 C         1.317072         1.615775        -4.077732
 O         2.092211         0.420871        -4.247522
 C         2.762249         1.626689        -2.003888
 C         2.194475         1.277010        -0.691475
 O         2.468537        -0.154879        -0.392230
 H         0.201357         0.277890         1.235882
 H        -1.035284         0.138468         0.051028
 H         0.124519        -1.231096         0.069411
 H         1.138459        -1.126780        -2.505628
 H        -0.164283        -0.121039        -2.512039
 H         0.252376         1.563565        -4.302627
 H         1.789704         2.493745        -4.478998
 H         3.887106         1.408150        -2.129878
 H         2.713149         2.788669        -2.210041
 H         2.299984         2.063358         0.061117
