19
Iteration:  2498charge 0 multiplicity 1
 C         0.212498        -0.015976         0.437850
 C         1.106158         0.261121        -0.685175
 C         0.722004        -0.013092        -2.143744
 C         1.597897         1.003983        -3.034873
 C         1.401584         1.346613        -4.474935
 O         2.480494         0.502889        -4.092595
 C         2.379171         1.823770        -1.966683
 C         2.270131         1.192660        -0.672958
 O         2.492173        -0.207056        -0.444084
 H        -0.312849         0.843245         0.809170
 H        -0.569196        -0.881282         0.306709
 H         0.751298        -0.342934         1.296401
 H         0.826063        -1.082947        -2.558543
 H        -0.386620         0.188489        -2.224409
 H         0.537504         0.939190        -5.020006
 H         1.628599         2.350266        -4.899564
 H         3.323566         1.891211        -2.477857
 H         1.797242         2.758492        -2.042352
 H         2.427944         1.736129         0.268320
