19
Iteration:   918charge 0 multiplicity 1
 C        -0.021565         0.240878         0.113946
 C         1.209480         0.123964        -0.740942
 C         0.995080        -0.281929        -2.214693
 C         1.736749         0.819697        -2.973509
 C         1.102303         1.608505        -4.123149
 O         2.130588         0.750509        -4.386344
 C         2.807847         1.453620        -2.013799
 C         2.236057         1.153553        -0.601561
 O         2.522297        -0.138868        -0.130649
 H         0.077265         0.979040         0.950687
 H        -0.812867         0.802910        -0.513192
 H        -0.357541        -0.637082         0.536827
 H         1.296193        -1.304295        -2.468870
 H        -0.102776        -0.302639        -2.349167
 H         0.025728         1.406050        -4.489040
 H         1.356145         2.694853        -4.117046
 H         3.809313         1.005056        -2.049121
 H         3.119091         2.494317        -2.336685
 H         2.202503         1.977857         0.138173
