19
Iteration:    21
 C         0.245315        -0.240539         0.346298
 C         1.131722         0.244860        -0.797861
 C         0.494633         0.610387        -2.123502
 C         1.655060         1.180533        -2.932883
 C         1.575278         1.346227        -4.391780
 O         2.232902         0.175724        -3.812930
 C         2.527717         1.943647        -1.907315
 C         2.356571         1.076818        -0.650223
 O         2.466316        -0.374724        -0.831416
 H         0.112317        -1.317848         0.269608
 H         0.616200        -0.058676         1.443774
 H        -0.709781         0.162782         0.243400
 H        -0.002666        -0.214605        -2.684101
 H        -0.261111         1.380407        -1.890836
 H         0.670710         1.145964        -4.886399
 H         2.252845         2.028133        -4.871621
 H         3.541712         2.141798        -2.190721
 H         1.946471         2.830287        -1.576930
 H         2.660065         1.449247         0.318707
