19
Iteration:  1272charge 0 multiplicity 1
 C         0.150307         0.042653         0.396924
 C         1.099257         0.182833        -0.710464
 C         0.748978         0.061220        -2.254776
 C         1.655395         1.010639        -3.020944
 C         1.269231         1.439926        -4.372824
 O         2.366699         0.541661        -4.175750
 C         2.557749         1.746148        -2.040556
 C         2.316456         1.122424        -0.655081
 O         2.466350        -0.275933        -0.293880
 H         0.842511        -0.093463         1.331225
 H        -0.496925         0.916787         0.506002
 H        -0.500075        -0.844003         0.498430
 H         0.934659        -0.958030        -2.635667
 H        -0.306710         0.291564        -2.175414
 H         0.414817         0.873672        -4.850991
 H         1.518074         2.455547        -4.750443
 H         3.611397         1.532046        -2.382177
 H         2.566741         2.853593        -1.967335
 H         2.369173         1.769403         0.216543
