19
Iteration:  3187
 C         0.035101        -0.090050         0.257372
 C         1.218459         0.225894        -0.728425
 C         0.804551         0.029028        -2.073243
 C         1.648888         0.971473        -2.929259
 C         1.268903         1.408689        -4.304456
 O         2.344727         0.451185        -4.108493
 C         2.536040         1.784435        -2.007854
 C         2.321351         1.272529        -0.657764
 O         2.531022        -0.180348        -0.495080
 H        -0.600624        -0.843076        -0.124684
 H         0.363190        -0.485772         1.165881
 H        -0.605069         0.926935         0.423707
 H         0.954969        -0.994379        -2.468092
 H        -0.210961         0.371954        -2.242485
 H         0.365085         0.951809        -4.753187
 H         1.495897         2.426839        -4.622454
 H         3.515306         1.679375        -2.486817
 H         2.031779         2.848495        -1.810703
 H         2.538257         1.879677         0.284009
