19
Iteration:  1831
 C         0.246632        -0.396049         0.333427
 C         1.094339         0.312963        -0.688813
 C         0.462417         0.468096        -2.077970
 C         1.596121         1.204779        -2.903408
 C         1.562929         1.194657        -4.422768
 O         2.369577         0.169863        -3.738619
 C         2.481397         2.032744        -1.947510
 C         2.316379         1.205163        -0.664202
 O         2.532294        -0.182892        -0.904122
 H         0.826149        -0.991678         1.066044
 H        -0.422143         0.488778         0.798449
 H        -0.490691        -0.888596        -0.230703
 H         0.274036        -0.496415        -2.677556
 H        -0.572118         0.806877        -1.960035
 H         0.630268         0.726948        -4.860459
 H         1.884881         1.995735        -5.115147
 H         3.512758         1.877600        -2.259367
 H         2.079209         3.040706        -1.921374
 H         2.581642         1.698804         0.284482
