19
Iteration:  3031
 C         0.212298        -0.105414         0.509511
 C         1.139234         0.213856        -0.710424
 C         0.619080         0.171032        -2.172478
 C         1.601168         1.006215        -2.957028
 C         1.494390         1.428455        -4.377158
 O         2.375282         0.417225        -4.027544
 C         2.439179         1.783313        -1.998347
 C         2.226137         1.186069        -0.697504
 O         2.491256        -0.236657        -0.653856
 H         0.847213        -0.748856         1.190319
 H        -0.091421         0.812137         1.092855
 H        -0.642923        -0.607101         0.140216
 H         0.478495        -0.818095        -2.578816
 H        -0.318097         0.721527        -2.267870
 H         0.699126         1.062869        -5.011620
 H         1.911553         2.403902        -4.675235
 H         3.574003         1.854919        -2.143260
 H         2.396454         2.931605        -1.829966
 H         2.352754         1.610317         0.204854
