19
Iteration:  1487
 C        -0.046981         0.098001         0.209959
 C         1.130168         0.209912        -0.666569
 C         1.005405        -0.308505        -2.215657
 C         1.679470         0.834159        -2.954804
 C         1.118009         1.627379        -4.060758
 O         2.166545         0.773102        -4.381298
 C         2.867548         1.407341        -2.160194
 C         2.269598         1.199144        -0.723430
 O         2.470394        -0.056082        -0.102552
 H         0.320377         0.407873         1.214997
 H        -0.775967         0.712988        -0.246066
 H        -0.449813        -0.921925         0.231358
 H         1.660964        -1.157939        -2.447636
 H        -0.046461        -0.437245        -2.464959
 H         0.107777         1.381023        -4.492778
 H         1.215830         2.698068        -4.158813
 H         3.804726         0.833399        -2.099417
 H         3.346246         2.351286        -2.430790
 H         2.191720         2.181832        -0.117966
