19
Iteration:  1912charge 0 multiplicity 1
 C         0.344330        -0.161888         0.457364
 C         1.118901         0.247152        -0.697675
 C         0.498609         0.195888        -2.175501
 C         1.611473         1.052010        -2.930130
 C         1.567348         1.367785        -4.364522
 O         2.382620         0.293474        -3.903904
 C         2.452412         1.919467        -1.967374
 C         2.218162         1.261184        -0.691867
 O         2.428389        -0.261956        -0.747587
 H         0.415064        -1.223972         0.384336
 H         0.695244         0.245924         1.324320
 H        -0.761028         0.118122         0.240227
 H         0.619013        -0.770635        -2.680736
 H        -0.537219         0.640203        -2.270246
 H         0.676294         1.163640        -4.909986
 H         2.140096         2.251942        -4.623442
 H         3.437904         1.996315        -2.459267
 H         2.013851         2.964088        -1.957219
 H         2.439099         1.843293         0.196888
