19
Iteration:  4679
 C         0.117933        -0.150236         0.228835
 C         1.160949         0.213180        -0.759435
 C         0.709142         0.076478        -2.237586
 C         1.736146         0.999973        -2.973644
 C         1.203783         1.415455        -4.264502
 O         2.389333         0.402342        -4.084630
 C         2.556117         1.894308        -1.974800
 C         2.315101         1.250609        -0.565922
 O         2.533023        -0.197243        -0.483269
 H         0.687730        -0.838205         1.008347
 H        -0.351259         0.662555         0.812778
 H        -0.677570        -0.763991        -0.105853
 H         0.634660        -1.069439        -2.395361
 H        -0.306249         0.632856        -2.172217
 H         0.231082         0.980605        -4.600521
 H         1.479885         2.374224        -4.822060
 H         3.633442         2.091167        -2.222904
 H         1.953524         2.807249        -1.951032
 H         2.229360         1.763294         0.480144
