19
Iteration:  3760
 C         0.216744        -0.148676         0.382408
 C         1.121803         0.166726        -0.723234
 C         0.578572         0.213193        -2.141647
 C         1.613601         0.971062        -2.921592
 C         1.561305         1.413869        -4.334207
 O         2.372998         0.306441        -3.990034
 C         2.335182         1.894873        -1.950682
 C         2.281806         1.219649        -0.641482
 O         2.550886        -0.178087        -0.729509
 H         0.073811        -1.166483         0.589257
 H         0.545704         0.326332         1.280896
 H        -0.733901         0.455838         0.327321
 H         0.515304        -0.800305        -2.430356
 H        -0.418917         0.624348        -2.298749
 H         0.648226         1.246281        -4.892999
 H         2.176264         2.220803        -4.719489
 H         3.322971         2.110204        -2.354684
 H         1.792181         2.803196        -1.960844
 H         2.643034         1.669771         0.316832
