19
Iteration:  1470
 C        -0.043741         0.138756         0.086347
 C         1.233068         0.155446        -0.727208
 C         1.096638        -0.210573        -2.160363
 C         1.753490         0.857147        -3.055035
 C         1.041104         1.681708        -4.082024
 O         2.107491         0.633118        -4.342543
 C         2.769388         1.421783        -2.074164
 C         2.294936         1.291302        -0.648360
 O         2.487641        -0.128252        -0.066714
 H         0.190671         0.270041         1.245746
 H        -0.849117         0.909418        -0.201338
 H        -0.528533        -0.909359        -0.117770
 H         1.433563        -1.232692        -2.443118
 H         0.035219        -0.367754        -2.478974
 H         0.031585         1.386702        -4.365366
 H         1.340877         2.739382        -4.299356
 H         3.674611         0.851943        -2.434068
 H         2.952048         2.525108        -2.147837
 H         2.308306         2.049010         0.110719
