19
Iteration:  2510
 C         0.143511        -0.048026         0.459792
 C         1.158571         0.243099        -0.706952
 C         0.760017         0.050317        -2.200535
 C         1.606772         0.913034        -2.993514
 C         1.357804         1.363378        -4.398451
 O         2.431535         0.515042        -4.090759
 C         2.414801         1.824217        -2.155380
 C         2.243128         1.215101        -0.601737
 O         2.486608        -0.210837        -0.418415
 H        -0.309843         0.826911         0.698488
 H        -0.649438        -0.765502         0.027411
 H         0.798919        -0.492779         1.293777
 H         1.103690        -1.020412        -2.345525
 H        -0.354983         0.183360        -2.363447
 H         0.640688         0.778870        -4.953985
 H         1.634574         2.391883        -4.652044
 H         3.443924         2.020745        -2.249996
 H         2.082832         2.851358        -1.902395
 H         2.556322         1.944828         0.139358
