19
Iteration:   585
 C         0.334292        -0.297262         0.379432
 C         1.196053         0.232066        -0.801506
 C         0.402378         0.713091        -2.108231
 C         1.593097         1.167899        -2.906822
 C         1.748677         1.246004        -4.322056
 O         2.241117         0.101460        -3.657636
 C         2.415579         2.002541        -1.913636
 C         2.308993         1.119003        -0.708357
 O         2.411509        -0.328180        -1.052082
 H        -0.510084        -0.813642        -0.098197
 H         0.745666        -1.082951         0.951312
 H         0.070871         0.651618         1.087597
 H        -0.170436        -0.040740        -2.674914
 H        -0.244795         1.548067        -1.850434
 H         0.891155         0.878558        -4.924094
 H         2.285361         2.122470        -4.630949
 H         3.532766         2.145373        -2.146121
 H         2.097746         2.998635        -1.692004
 H         2.715914         1.325007         0.283637
