19
Iteration:  1538
 C        -0.009749         0.147206         0.229819
 C         1.098936         0.173950        -0.829572
 C         1.039434        -0.274978        -2.262201
 C         1.855983         0.863839        -2.945844
 C         1.134437         1.691140        -3.958216
 O         2.056035         0.601388        -4.391233
 C         2.889307         1.484941        -2.052103
 C         2.221799         1.176466        -0.702068
 O         2.419379        -0.076081        -0.206117
 H         0.193852         0.953233         0.822051
 H        -1.038094         0.158984        -0.235730
 H         0.100160        -0.928241         0.846134
 H         1.471774        -1.329418        -2.244575
 H        -0.067859        -0.379153        -2.334096
 H         0.064470         1.644200        -4.141530
 H         1.556239         2.673581        -4.240811
 H         4.001870         1.296469        -2.087707
 H         2.954454         2.653063        -2.164819
 H         2.236664         2.024513        -0.040285
