19
Iteration:  3257charge 0 multiplicity 1
 C         0.248426        -0.132619         0.532725
 C         1.096952         0.275026        -0.686398
 C         0.543809         0.068436        -2.209164
 C         1.596999         0.929204        -2.993175
 C         1.464005         1.443789        -4.368082
 O         2.496517         0.455370        -4.029263
 C         2.459297         1.807681        -2.030002
 C         2.256424         1.231671        -0.705188
 O         2.436142        -0.180309        -0.625332
 H         0.385958        -1.269077         0.573386
 H         0.861891         0.091982         1.504630
 H        -0.679662         0.271247         0.584987
 H         0.587376        -1.052356        -2.468618
 H        -0.551667         0.470560        -2.115800
 H         0.656229         1.039148        -4.974895
 H         1.875933         2.440761        -4.634174
 H         3.539104         1.732421        -2.231958
 H         1.967641         2.757352        -2.019732
 H         2.296209         1.960249         0.143791
