19
Iteration:  3726charge 0 multiplicity 1
 C         0.199918        -0.224857         0.386485
 C         1.141657         0.212875        -0.746933
 C         0.653522         0.242142        -2.242419
 C         1.699048         1.011640        -2.957588
 C         1.385793         1.353498        -4.361880
 O         2.331952         0.372922        -4.067564
 C         2.551927         1.860704        -1.942912
 C         2.191888         1.256112        -0.588177
 O         2.482411        -0.166856        -0.549580
 H         0.337948        -1.183001         0.812177
 H         0.559286         0.505479         1.142151
 H        -0.860034        -0.160484         0.040912
 H         0.710425        -0.722889        -2.629648
 H        -0.360573         0.619749        -2.201995
 H         0.409675         0.996002        -4.677397
 H         1.832846         2.130603        -4.974877
 H         3.577752         1.702952        -2.224300
 H         2.272729         2.898160        -1.954388
 H         2.455854         1.691239         0.364679
