19
Iteration:  1751charge 0 multiplicity 1
 C         0.229424        -0.127755         0.561113
 C         1.067106         0.249295        -0.670376
 C         0.565586         0.203843        -2.155996
 C         1.594685         1.009756        -2.974119
 C         1.563853         1.536138        -4.434621
 O         2.366743         0.352502        -4.007623
 C         2.496701         1.833510        -1.982155
 C         2.219074         1.120491        -0.695010
 O         2.479467        -0.285318        -0.716297
 H         0.422963         0.643128         1.400045
 H        -0.788688         0.109559         0.468760
 H         0.403304        -1.091983         0.928420
 H         0.705394        -0.784970        -2.512746
 H        -0.494025         0.402797        -2.148547
 H         0.687273         1.424844        -5.066811
 H         2.251297         2.347524        -4.742094
 H         3.549382         1.831709        -2.231415
 H         2.173551         2.819425        -2.136342
 H         2.560501         1.631841         0.214382
