19
Iteration:   541
 C         0.335356        -0.230123         0.470787
 C         1.108624         0.251986        -0.768709
 C         0.486717         0.620577        -2.140673
 C         1.574354         1.229396        -2.931804
 C         1.623690         1.308224        -4.391390
 O         2.359183         0.230359        -3.716052
 C         2.533653         1.912427        -1.941930
 C         2.334932         1.081869        -0.666869
 O         2.264142        -0.403334        -0.974353
 H         0.276150        -1.318098         0.369854
 H         0.924462        -0.176990         1.321194
 H        -0.729504         0.238949         0.797200
 H         0.052019        -0.193700        -2.743956
 H        -0.338427         1.312831        -1.995597
 H         0.826461         1.018512        -5.107063
 H         2.303691         2.080324        -4.746694
 H         3.545472         1.887236        -2.443117
 H         2.039614         2.837239        -1.759995
 H         3.000060         1.300048         0.181278
