19
Iteration:  3973charge 0 multiplicity 1
 C         0.142517        -0.044234         0.326422
 C         1.174880         0.175548        -0.714164
 C         0.685355         0.118004        -2.214463
 C         1.603008         1.025205        -2.965885
 C         1.368134         1.449579        -4.329704
 O         2.372830         0.408665        -4.008860
 C         2.423402         1.841282        -2.046410
 C         2.251336         1.198579        -0.629877
 O         2.575300        -0.257527        -0.478370
 H         0.206982        -1.175331         0.444940
 H         0.570597         0.656596         1.176307
 H        -0.864346         0.139190         0.072998
 H         0.940548        -1.026169        -2.702755
 H        -0.352943         0.298625        -2.275758
 H         0.462245         0.936169        -4.740706
 H         1.798713         2.459535        -4.588087
 H         3.405242         1.853616        -2.591242
 H         2.208466         2.900610        -1.993845
 H         2.523836         1.689055         0.271051
