19
Iteration:  2461
 C         0.240326        -0.069046         0.433896
 C         1.159897         0.149304        -0.787260
 C         0.663826         0.141815        -2.173968
 C         1.670909         0.977775        -2.874888
 C         1.457774         1.336717        -4.325811
 O         2.427180         0.306991        -3.937233
 C         2.329364         1.868597        -1.986857
 C         2.147446         1.247608        -0.648144
 O         2.527485        -0.126584        -0.739056
 H        -0.764489         0.574316         0.360386
 H        -0.012753        -1.078917         0.483480
 H         0.833724         0.211633         1.247994
 H         0.662138        -0.861244        -2.596495
 H        -0.183543         0.734612        -2.454870
 H         0.488240         1.028380        -4.784783
 H         1.969853         2.216445        -4.725567
 H         3.348364         2.142007        -2.350908
 H         1.816484         2.839688        -1.886533
 H         2.388424         1.785325         0.266296
