19
Iteration:  2688
 C        -0.001279         0.002792         0.300442
 C         1.175738         0.180653        -0.622019
 C         0.903856        -0.044755        -2.172209
 C         1.685252         0.977563        -2.935239
 C         1.257537         1.518807        -4.348039
 O         2.256750         0.531709        -4.251729
 C         2.593108         1.700161        -2.052336
 C         2.290076         1.175014        -0.667201
 O         2.547177        -0.170884        -0.304684
 H         0.020585        -1.079701         0.413966
 H         0.222516         0.337566         1.300532
 H        -1.027382         0.430957        -0.098057
 H         0.937132        -1.108384        -2.421537
 H        -0.241693         0.103276        -2.462383
 H         0.266329         1.158187        -4.618653
 H         1.501638         2.555556        -4.631065
 H         3.593679         1.405964        -2.430714
 H         2.409914         2.761689        -2.029322
 H         2.459199         1.861773         0.225031
