19
Iteration:   494charge 0 multiplicity 1
 C         0.142966        -0.102277         0.358644
 C         1.152729         0.214546        -0.708741
 C         0.608245         0.375177        -2.117959
 C         1.678652         1.039944        -2.937319
 C         1.522688         1.549157        -4.322105
 O         2.195238         0.317374        -4.088135
 C         2.586551         1.780618        -1.956829
 C         2.382481         1.060238        -0.578969
 O         2.438145        -0.361741        -0.680997
 H         0.039595        -1.126626         0.882166
 H         0.236148         0.624394         1.194970
 H        -0.794733         0.195124        -0.059768
 H         0.287935        -0.579884        -2.571867
 H        -0.254304         1.042666        -2.223243
 H         0.567359         1.445108        -4.749384
 H         2.117322         2.400445        -4.637700
 H         3.608111         1.552498        -2.345217
 H         2.340264         2.823920        -1.958073
 H         2.675293         1.629140         0.312173
