19
Iteration:  2528charge 0 multiplicity 1
 C         0.108278        -0.082894         0.367794
 C         1.126164         0.243876        -0.673920
 C         0.814042        -0.047775        -2.159369
 C         1.706761         0.952370        -2.988312
 C         1.267953         1.404345        -4.306026
 O         2.398873         0.409393        -4.133250
 C         2.512334         1.863859        -1.980869
 C         2.218776         1.269502        -0.698769
 O         2.528243        -0.133791        -0.473784
 H        -0.548615         0.869414         0.689588
 H        -0.777109        -0.669037        -0.049362
 H         0.552702        -0.501103         1.193881
 H         0.951542        -1.106956        -2.565252
 H        -0.274258         0.154588        -2.159033
 H         0.311454         0.939842        -4.672993
 H         1.650434         2.397574        -4.651899
 H         3.592503         1.837746        -2.358826
 H         2.212052         2.889667        -2.295986
 H         2.302958         1.859133         0.240429
