19
Iteration:   772charge 0 multiplicity 1
 C        -0.023222         0.163068         0.134504
 C         1.123336         0.200908        -0.778851
 C         1.085976        -0.251331        -2.229213
 C         1.855296         0.818555        -2.988421
 C         1.097022         1.711457        -3.965385
 O         2.019816         0.687799        -4.393465
 C         2.954544         1.393672        -2.050298
 C         2.224308         1.170599        -0.698753
 O         2.395705        -0.101141        -0.112328
 H        -0.162358         1.025003         0.650551
 H        -0.916384         0.093330        -0.517674
 H        -0.004847        -0.656261         0.959011
 H         1.679235        -1.157798        -2.425386
 H         0.045205        -0.333286        -2.613021
 H         0.096092         1.344543        -4.202531
 H         1.215116         2.774010        -4.277625
 H         3.989587         0.958712        -1.966420
 H         3.237841         2.447277        -2.264048
 H         2.206703         1.960872         0.052520
