19
Iteration:   896
 C        -0.050650         0.363077         0.023940
 C         1.238282         0.139403        -0.752769
 C         1.144963        -0.364577        -2.199939
 C         1.762190         0.881078        -3.019320
 C         0.984809         1.732036        -3.946957
 O         2.113289         0.642212        -4.362700
 C         2.765299         1.459411        -2.028022
 C         2.270836         1.134738        -0.672355
 O         2.467252        -0.204029        -0.088901
 H         0.088051         0.713634         1.049740
 H        -0.662546         1.203101        -0.466543
 H        -0.562461        -0.531660         0.063383
 H         1.855774        -1.192216        -2.322975
 H         0.181146        -0.772303        -2.493720
 H         0.031224         1.324239        -4.417648
 H         1.274786         2.768538        -4.215828
 H         3.759644         1.084672        -2.266506
 H         2.919509         2.564574        -2.146744
 H         2.283110         2.003362        -0.021513
