19
Iteration:  2796charge 0 multiplicity 1
 C         0.121429        -0.034212         0.289519
 C         1.233408         0.125356        -0.711394
 C         0.728289         0.092384        -2.198771
 C         1.663572         1.034985        -2.960229
 C         1.295840         1.471326        -4.332442
 O         2.317622         0.401328        -4.087789
 C         2.552849         1.860069        -1.949310
 C         2.234143         1.174217        -0.643600
 O         2.536809        -0.257420        -0.485334
 H         0.469863        -0.236318         1.243077
 H        -0.343823         0.927984         0.358426
 H        -0.657534        -0.950330         0.255507
 H         0.570868        -0.924921        -2.616331
 H        -0.207996         0.701004        -2.048746
 H         0.283458         1.150596        -4.625624
 H         1.729929         2.307929        -4.910316
 H         3.596592         1.665724        -2.219909
 H         2.408308         2.923431        -2.161392
 H         2.381407         1.756252         0.353041
