19
Iteration:  4250
 C         0.188991        -0.237456         0.382958
 C         1.116012         0.126330        -0.735473
 C         0.628333         0.205500        -2.155592
 C         1.724957         0.987708        -3.006873
 C         1.382444         1.357229        -4.376127
 O         2.393778         0.379618        -4.189545
 C         2.493147         1.943052        -1.979362
 C         2.183245         1.248813        -0.589985
 O         2.569183        -0.159195        -0.435861
 H        -0.186924        -1.256880         0.254855
 H         0.829908        -0.115083         1.208559
 H        -0.703144         0.539301         0.477184
 H         0.392895        -0.766117        -2.729690
 H        -0.286527         0.771452        -2.187839
 H         0.420024         1.030538        -4.742953
 H         1.694125         2.396000        -4.559516
 H         3.507429         1.727470        -2.135236
 H         2.064056         2.968994        -2.088602
 H         2.115855         1.918739         0.415442
