19
Iteration:  4641charge 0 multiplicity 1
 C         0.065608        -0.089632         0.401478
 C         1.164310         0.176281        -0.698157
 C         0.863458        -0.096782        -2.148020
 C         1.645480         0.967695        -3.025841
 C         1.341686         1.596428        -4.376944
 O         2.297523         0.453465        -4.111671
 C         2.500321         1.825209        -2.007849
 C         2.159648         1.218987        -0.588102
 O         2.585765        -0.166191        -0.494554
 H         0.436642        -0.826319         1.036033
 H        -0.067155         0.804658         1.025532
 H        -0.919386        -0.356404        -0.123142
 H         1.235702        -1.026602        -2.542609
 H        -0.153801        -0.125620        -2.453711
 H         0.482581         1.133850        -4.777080
 H         1.688237         2.546959        -4.647145
 H         3.484902         1.667544        -2.367847
 H         2.372412         2.911655        -2.027879
 H         2.273614         1.816645         0.282768
