19
Iteration:  1512
 C         0.054492         0.125957         0.313400
 C         1.104172         0.265732        -0.740129
 C         1.080181        -0.335147        -2.272887
 C         1.869056         0.754864        -3.045341
 C         1.106221         1.660942        -3.959378
 O         2.150348         0.754934        -4.419128
 C         2.786616         1.376130        -2.068546
 C         2.134386         1.263222        -0.723562
 O         2.379500        -0.084703        -0.205049
 H         0.385089         0.820765         1.214157
 H        -0.911450         0.387759        -0.153124
 H         0.012257        -0.816744         0.605413
 H         1.449560        -1.359157        -2.240295
 H         0.011634        -0.258995        -2.505138
 H         0.073386         1.522957        -4.322517
 H         1.388009         2.728804        -4.068177
 H         3.726582         0.870917        -1.854159
 H         3.209493         2.303161        -2.329813
 H         2.397225         2.065087        -0.024801
