19
Iteration:  4877charge 0 multiplicity 1
 C         0.364248        -0.295562         0.421307
 C         1.124564         0.215964        -0.675327
 C         0.421542         0.265078        -2.133757
 C         1.552091         1.028951        -2.989853
 C         1.665681         1.458893        -4.392428
 O         2.360903         0.291809        -3.941632
 C         2.340475         1.880967        -2.041909
 C         2.189491         1.193070        -0.620815
 O         2.558113        -0.165902        -0.657907
 H         0.926784        -0.181814         1.435750
 H        -0.581618         0.180322         0.493042
 H         0.140294        -1.361694         0.242380
 H         0.167544        -0.681771        -2.599460
 H        -0.313630         1.036870        -2.360285
 H         0.786110         1.402882        -5.078346
 H         2.313783         2.329824        -4.623333
 H         3.375411         1.859948        -2.461439
 H         2.077212         2.905153        -2.017758
 H         2.356869         1.840489         0.141312
