19
Iteration:  3725charge 0 multiplicity 1
 C         0.201089        -0.225765         0.379977
 C         1.144653         0.224511        -0.751568
 C         0.650175         0.239986        -2.238482
 C         1.700336         1.013136        -2.958437
 C         1.385959         1.354563        -4.362396
 O         2.333576         0.374953        -4.067240
 C         2.550078         1.852965        -1.949386
 C         2.194270         1.245834        -0.582203
 O         2.475609        -0.161354        -0.541673
 H         0.333505        -1.207013         0.805113
 H         0.570576         0.521757         1.145251
 H        -0.814552        -0.186061         0.049383
 H         0.711855        -0.717014        -2.647484
 H        -0.375346         0.596398        -2.186929
 H         0.409865         0.974746        -4.675399
 H         1.803422         2.152335        -4.977406
 H         3.585027         1.694324        -2.222339
 H         2.295188         2.922242        -1.956256
 H         2.465084         1.688542         0.340793
