19
Iteration:  1828charge 0 multiplicity 1
 C         0.235994        -0.366523         0.312679
 C         1.105424         0.269213        -0.686948
 C         0.454349         0.451839        -2.060466
 C         1.622466         1.217132        -2.890112
 C         1.551803         1.188048        -4.430367
 O         2.380077         0.170994        -3.744693
 C         2.477517         2.036693        -1.942357
 C         2.302239         1.213911        -0.650746
 O         2.516039        -0.184149        -0.925386
 H         0.812386        -0.929823         1.188818
 H        -0.300235         0.502889         0.756449
 H        -0.484876        -1.013920        -0.143732
 H         0.294406        -0.469014        -2.542106
 H        -0.555345         0.835158        -2.023075
 H         0.634383         0.753697        -4.898047
 H         1.880962         2.005951        -5.076856
 H         3.474993         1.923478        -2.360724
 H         2.156156         3.056312        -1.883868
 H         2.606728         1.739486         0.268232
