19
Iteration:  3913charge 0 multiplicity 1
 C         0.328944        -0.192951         0.431572
 C         1.101634         0.185089        -0.795273
 C         0.575375         0.260984        -2.214803
 C         1.752007         0.977762        -2.892862
 C         1.489809         1.343916        -4.286504
 O         2.373734         0.269222        -3.949523
 C         2.445742         1.948958        -1.971548
 C         2.144954         1.224664        -0.642613
 O         2.457982        -0.150229        -0.762120
 H         0.492394        -1.258403         0.503257
 H         0.902111         0.080056         1.254581
 H        -0.792759        -0.021389         0.601905
 H         0.217210        -0.596466        -2.703112
 H        -0.313361         1.057637        -2.120623
 H         0.566662         1.062408        -4.762346
 H         1.918664         2.233019        -4.699512
 H         3.476286         2.147672        -2.309701
 H         1.861389         2.924328        -1.883072
 H         2.156557         1.798440         0.346061
