19
Iteration:    71charge 0 multiplicity 1
 C         0.369177        -0.485537         0.301363
 C         1.029550         0.338825        -0.796588
 C         0.350575         0.771799        -2.061751
 C         1.620830         1.238644        -2.885507
 C         1.722203         1.226107        -4.307492
 O         2.228218         0.124733        -3.503131
 C         2.583619         2.012964        -2.023429
 C         2.384830         1.102223        -0.716785
 O         2.316224        -0.292036        -1.052754
 H         0.596181        -1.570392         0.163126
 H         0.812450        -0.108370         1.185452
 H        -0.797321        -0.495644         0.414892
 H        -0.119645         0.014965        -2.709944
 H        -0.395713         1.571568        -1.965458
 H         0.785142         1.058266        -4.987568
 H         2.528538         1.844392        -4.835694
 H         3.626376         1.795194        -2.409906
 H         2.386968         3.113362        -1.899566
 H         2.973005         1.307522         0.207672
