19
Iteration:   497
 C         0.149935        -0.108675         0.386068
 C         1.146186         0.216421        -0.725702
 C         0.605789         0.407134        -2.136174
 C         1.650419         1.048492        -2.921463
 C         1.530145         1.522148        -4.307600
 O         2.212717         0.303337        -4.093752
 C         2.578930         1.782109        -1.958986
 C         2.389661         1.062451        -0.565167
 O         2.451301        -0.360266        -0.702081
 H         0.004591        -1.076813         0.828567
 H         0.303452         0.589592         1.119659
 H        -0.902456         0.177046        -0.068485
 H         0.245375        -0.533944        -2.582356
 H        -0.249694         1.074131        -2.158707
 H         0.554770         1.454505        -4.827725
 H         2.091252         2.397682        -4.634357
 H         3.622211         1.559617        -2.282642
 H         2.284862         2.811227        -1.884821
 H         2.659360         1.602090         0.350573
