19
Iteration:  1528
 C         0.021670         0.150577         0.284891
 C         1.150800         0.184998        -0.822820
 C         1.005289        -0.269972        -2.279207
 C         1.852045         0.803575        -2.993853
 C         1.182339         1.656229        -3.903104
 O         2.074018         0.645918        -4.413554
 C         2.903031         1.501180        -2.067109
 C         2.179524         1.272146        -0.729969
 O         2.368964        -0.122844        -0.180101
 H         0.183796         0.857200         1.021271
 H        -1.041532         0.257810        -0.010396
 H         0.124340        -0.890287         0.936616
 H         1.594239        -1.229652        -2.391078
 H         0.051073        -0.344097        -2.831256
 H         0.131705         1.436657        -4.116416
 H         1.466607         2.703144        -3.931392
 H         3.885948         0.999719        -2.291731
 H         2.874513         2.586962        -2.419553
 H         1.948470         1.994275         0.046511
