19
Iteration:   438
 C         0.051257         0.100623         0.379612
 C         1.115817         0.244323        -0.741098
 C         0.815272        -0.053937        -2.201167
 C         1.735711         0.924142        -3.022815
 C         1.260576         1.734844        -4.180834
 O         2.189249         0.628683        -4.348493
 C         2.879293         1.405574        -1.983978
 C         2.210650         1.183083        -0.667730
 O         2.412811        -0.329369        -0.335087
 H        -0.284292        -0.995700         0.545802
 H         0.600424         0.457763         1.372314
 H        -0.710911         0.772195         0.303584
 H         0.950341        -1.095462        -2.492106
 H        -0.232980         0.316778        -2.348420
 H         0.289485         1.464365        -4.531521
 H         1.626807         2.731683        -4.396355
 H         3.921408         0.995785        -2.025869
 H         3.150020         2.432345        -2.221367
 H         2.078244         1.984898         0.123789
