19
Iteration:  3549
 C         0.120320        -0.122845         0.402884
 C         1.119782         0.239214        -0.765742
 C         0.794558        -0.021079        -2.219567
 C         1.691638         0.990182        -2.985203
 C         1.429146         1.512851        -4.326831
 O         2.195701         0.378458        -4.213957
 C         2.556617         1.801775        -1.953708
 C         2.147610         1.237900        -0.550003
 O         2.577629        -0.151413        -0.448946
 H         0.000327        -1.182051         0.509787
 H         0.367942         0.378781         1.415503
 H        -0.807640         0.550759         0.141597
 H         0.991343        -1.039833        -2.481654
 H        -0.302996         0.052905        -2.428472
 H         0.522898         1.455943        -4.947219
 H         2.040267         2.402704        -4.536532
 H         3.620980         1.694985        -2.078570
 H         2.387063         2.866148        -2.135178
 H         2.339050         1.847623         0.305976
