19
Iteration:  3150charge 0 multiplicity 1
 C         0.214568        -0.122431         0.481461
 C         1.062978         0.200158        -0.711069
 C         0.813036         0.055967        -2.254087
 C         1.641346         0.968312        -3.010329
 C         1.348200         1.498686        -4.321944
 O         2.344177         0.452250        -4.272686
 C         2.627261         1.647286        -1.935226
 C         2.101412         1.251535        -0.624364
 O         2.455891        -0.083082        -0.435424
 H        -0.073559        -1.278276         0.455174
 H         0.925669         0.100660         1.390737
 H        -0.631173         0.490238         0.618718
 H         0.756253        -0.977819        -2.396454
 H        -0.227253         0.319647        -2.323754
 H         0.395992         1.174597        -4.726510
 H         1.691674         2.472185        -4.703307
 H         3.704200         1.509553        -2.211995
 H         2.584399         2.723255        -2.062761
 H         2.214776         1.888166         0.173533
