19
Iteration:  4317
 C         0.281461        -0.137272         0.420004
 C         1.174273         0.076362        -0.789989
 C         0.503980         0.254547        -2.168231
 C         1.561973         1.047125        -2.971422
 C         1.626689         1.324042        -4.451201
 O         2.417604         0.328218        -3.752239
 C         2.174172         2.000362        -1.975659
 C         2.260144         1.228195        -0.661500
 O         2.597222        -0.206908        -0.787698
 H        -0.541995        -0.811667         0.296562
 H         0.897033        -0.702250         1.157304
 H        -0.091420         0.820118         0.935483
 H         0.353058        -0.743401        -2.604258
 H        -0.503784         0.545286        -2.002402
 H         0.848914         1.010826        -5.121538
 H         2.192467         2.125556        -4.902047
 H         3.168771         2.194130        -2.288772
 H         1.625980         2.937340        -1.696081
 H         2.677355         1.479106         0.420283
