19
Iteration:  3330charge 0 multiplicity 1
 C         0.235722        -0.308104         0.237297
 C         1.217639         0.222830        -0.697167
 C         0.533844         0.393510        -2.098911
 C         1.607324         1.124743        -2.942860
 C         1.500200         1.243929        -4.405083
 O         2.317766         0.179680        -3.818234
 C         2.417070         1.999831        -2.038357
 C         2.217278         1.255265        -0.597879
 O         2.617044        -0.169842        -0.691533
 H         0.441852        -1.298034         0.070815
 H         0.208924        -0.153196         1.307616
 H        -0.804164         0.043953        -0.276328
 H         0.185844        -0.556183        -2.528401
 H        -0.237545         1.043761        -1.837271
 H         0.575675         0.943546        -4.894016
 H         2.091933         2.040468        -4.889490
 H         3.374335         2.187162        -2.530227
 H         1.806077         2.902992        -1.701767
 H         2.509255         1.817928         0.338847
