19
Iteration:  1274
 C         0.160618         0.041609         0.384980
 C         1.094271         0.181250        -0.728471
 C         0.774171         0.073086        -2.232270
 C         1.650566         1.007727        -3.013860
 C         1.283273         1.438661        -4.372925
 O         2.347204         0.547738        -4.183773
 C         2.551533         1.746875        -2.047448
 C         2.319304         1.106715        -0.635575
 O         2.475422        -0.268889        -0.285829
 H         0.759243        -0.050224         1.268578
 H        -0.551563         0.881157         0.466376
 H        -0.603955        -0.879418         0.450140
 H         0.879650        -0.995472        -2.579030
 H        -0.336362         0.276701        -2.189338
 H         0.407783         0.882605        -4.770409
 H         1.497025         2.402380        -4.792536
 H         3.615550         1.542279        -2.400015
 H         2.645132         2.900516        -2.046986
 H         2.373288         1.746537         0.238154
