19
Iteration:  3982
 C         0.143800        -0.018282         0.321720
 C         1.184316         0.189912        -0.815218
 C         0.740877         0.066905        -2.196041
 C         1.631401         0.965466        -2.942942
 C         1.336317         1.424839        -4.278332
 O         2.351096         0.387455        -4.093056
 C         2.450139         1.866449        -1.954300
 C         2.257038         1.221204        -0.590221
 O         2.572630        -0.225035        -0.506081
 H         0.070253        -1.090463         0.632681
 H         0.438745         0.396612         1.331642
 H        -0.881323         0.318829         0.052384
 H         0.796727        -0.942415        -2.817539
 H        -0.349416         0.304000        -2.273125
 H         0.369284         1.279299        -4.829434
 H         1.782479         2.382376        -4.686130
 H         3.543905         1.850153        -2.304610
 H         2.076293         2.896978        -2.067027
 H         2.304669         1.723062         0.395383
