19
Iteration:  1488charge 0 multiplicity 1
 C        -0.047528         0.092158         0.209803
 C         1.115750         0.208165        -0.667753
 C         0.998602        -0.310836        -2.206692
 C         1.678632         0.825183        -2.955738
 C         1.121253         1.629997        -4.059119
 O         2.170626         0.777287        -4.387945
 C         2.878871         1.404497        -2.159899
 C         2.272253         1.204203        -0.716133
 O         2.470884        -0.052581        -0.111908
 H         0.369253         0.440728         1.241528
 H        -0.800320         0.702787        -0.231412
 H        -0.404869        -0.866068         0.247405
 H         1.652046        -1.140307        -2.463567
 H        -0.046488        -0.482192        -2.481193
 H         0.101799         1.371260        -4.484380
 H         1.199065         2.708642        -4.149720
 H         3.806168         0.839120        -2.099694
 H         3.344869         2.330354        -2.399342
 H         2.145465         2.190608        -0.127394
