19
Iteration:  4872
 C         0.334288        -0.336695         0.466057
 C         1.089484         0.191862        -0.663366
 C         0.455140         0.290131        -2.133187
 C         1.572963         1.049906        -3.050248
 C         1.657224         1.498994        -4.382955
 O         2.359248         0.250025        -3.920179
 C         2.341543         1.868214        -2.052321
 C         2.159172         1.257199        -0.662256
 O         2.604350        -0.182494        -0.699119
 H         0.791509        -0.017262         1.420155
 H        -0.734915         0.065037         0.500423
 H         0.098369        -1.402791         0.367188
 H         0.135879        -0.669934        -2.585905
 H        -0.354793         1.067827        -2.080685
 H         0.811213         1.349941        -5.026353
 H         2.431114         2.245584        -4.544617
 H         3.389170         1.855873        -2.346950
 H         1.994339         2.996781        -1.965035
 H         2.554498         1.904852         0.289422
