19
Iteration:  2281charge 0 multiplicity 1
 C         0.194658        -0.075075         0.468395
 C         1.114743         0.239120        -0.678426
 C         0.730623         0.127348        -2.203666
 C         1.636742         0.979488        -3.005988
 C         1.478058         1.337742        -4.412325
 O         2.418804         0.379900        -3.994265
 C         2.384954         1.940552        -1.923062
 C         2.176421         1.226133        -0.605075
 O         2.493641        -0.216251        -0.716970
 H        -0.394367         0.727828         0.706091
 H        -0.374926        -1.064550         0.341899
 H         0.933993        -0.248632         1.384290
 H         0.813003        -0.948570        -2.480353
 H        -0.341466         0.288542        -2.368488
 H         0.602672         0.866223        -4.925052
 H         1.920944         2.240439        -4.863922
 H         3.338090         2.154352        -2.403233
 H         1.798698         2.913771        -1.745507
 H         2.363989         1.468695         0.433605
