19
Iteration:  1260
 C         0.176743         0.068246         0.533861
 C         1.169902         0.190440        -0.714623
 C         0.694324         0.003758        -2.249097
 C         1.648036         0.999046        -3.028079
 C         1.266642         1.462004        -4.383616
 O         2.440833         0.511695        -4.141008
 C         2.594825         1.712838        -1.993729
 C         2.200534         1.173226        -0.676173
 O         2.434673        -0.284911        -0.425082
 H         0.893427         0.039546         1.517501
 H        -0.485358         0.932671         0.721356
 H        -0.390260        -0.784773         0.347467
 H         0.780050        -0.996581        -2.690355
 H        -0.286514         0.273546        -2.599396
 H         0.393874         1.119576        -5.018870
 H         1.586982         2.521292        -4.653640
 H         3.671000         1.742331        -2.300746
 H         2.184724         2.708286        -1.905707
 H         2.484291         1.815141         0.160816
