19
Iteration:   652
 C         0.147226        -0.206639         0.476440
 C         1.047267         0.313903        -0.695321
 C         0.600250         0.310224        -2.176620
 C         1.684079         0.996601        -2.918736
 C         1.477376         1.497999        -4.325444
 O         2.311828         0.363626        -4.014491
 C         2.647311         1.710248        -1.979657
 C         2.305302         1.146890        -0.698148
 O         2.434370        -0.235799        -0.709823
 H        -0.856118        -0.141311         0.174516
 H         0.318002        -1.306236         0.716789
 H         0.234566         0.559495         1.382757
 H         0.448598        -0.712295        -2.511801
 H        -0.328093         0.910149        -2.183774
 H         0.532322         1.152878        -4.824021
 H         1.916078         2.414458        -4.780268
 H         3.679900         1.718067        -2.302066
 H         2.444859         2.759843        -2.091181
 H         2.614258         1.684134         0.197648
