19
Iteration:  2646
 C         0.115627         0.059587         0.308814
 C         1.077076         0.199481        -0.809772
 C         0.936502        -0.139410        -2.231722
 C         1.755762         0.921772        -2.957452
 C         1.187020         1.518326        -4.140507
 O         2.296281         0.467666        -4.208160
 C         2.562287         1.768090        -2.040138
 C         2.209925         1.205467        -0.638891
 O         2.511960        -0.144288        -0.397838
 H        -0.873340        -0.582887         0.212695
 H         0.419272        -0.429353         1.215040
 H        -0.203408         1.077719         0.639372
 H         1.186541        -1.106830        -2.644464
 H        -0.191750        -0.046291        -2.342622
 H         0.174494         1.187757        -4.389042
 H         1.683471         2.369085        -4.614829
 H         3.696669         1.540953        -2.006991
 H         2.504728         2.866803        -2.135014
 H         2.392774         1.869320         0.256430
