19
Iteration:  1839charge 0 multiplicity 1
 C         0.243431        -0.384709         0.345019
 C         1.111403         0.377018        -0.744310
 C         0.491490         0.485991        -2.140842
 C         1.543687         1.148372        -2.956644
 C         1.559826         1.188459        -4.378731
 O         2.328746         0.209966        -3.725042
 C         2.462699         1.979233        -1.973304
 C         2.310403         1.202860        -0.673394
 O         2.550819        -0.174345        -0.833212
 H         0.862697        -1.222064         0.899451
 H        -0.405930         0.146355         1.083853
 H        -0.419739        -0.942295        -0.277407
 H         0.345925        -0.440733        -2.614346
 H        -0.416263         1.066180        -1.990544
 H         0.628312         0.752007        -4.804472
 H         2.168193         1.872821        -4.971364
 H         3.534739         2.039096        -2.166788
 H         2.117867         2.993167        -1.885781
 H         2.686440         1.521411         0.309521
