19
Iteration:  1079charge 0 multiplicity 1
 C         0.345350        -0.084499         0.490440
 C         1.099349         0.151831        -0.768550
 C         0.479742         0.384481        -2.137262
 C         1.587427         1.036627        -2.961083
 C         1.594897         1.344930        -4.406739
 O         2.441352         0.314615        -3.790116
 C         2.355411         1.896460        -1.963534
 C         2.275245         1.110888        -0.703682
 O         2.459363        -0.267552        -0.857370
 H         0.942318        -0.328539         1.291470
 H        -0.340277         0.788532         0.705611
 H        -0.353448        -1.059719         0.387834
 H         0.099411        -0.553648        -2.592453
 H        -0.328445         1.130843        -1.961003
 H         0.900311         0.930872        -5.118827
 H         2.132356         2.163037        -4.833114
 H         3.349682         2.098344        -2.345304
 H         1.820198         2.802582        -1.690418
 H         2.371843         1.496979         0.299222
