19
Iteration:  4951charge 0 multiplicity 1
 C         0.166508        -0.067445         0.283168
 C         1.244443         0.230888        -0.763426
 C         0.697158         0.131141        -2.135561
 C         1.647051         0.961036        -2.956556
 C         1.289291         1.374425        -4.318043
 O         2.419958         0.511572        -4.010001
 C         2.366425         1.867269        -1.974399
 C         2.274012         1.123227        -0.600030
 O         2.562186        -0.270634        -0.582039
 H         0.468835        -0.383946         1.350363
 H        -0.411895         0.842817         0.368689
 H        -0.451877        -0.866626        -0.066280
 H         0.640725        -0.911928        -2.498115
 H        -0.259014         0.551210        -2.119444
 H         0.496210         0.834273        -4.802826
 H         1.603416         2.308026        -4.748230
 H         3.375857         1.965005        -2.352971
 H         2.008393         2.976319        -1.938269
 H         2.456738         1.700327         0.242027
