19
Iteration:   856
 C        -0.107314         0.294295        -0.021458
 C         1.182271         0.272670        -0.797274
 C         1.211001        -0.310947        -2.218745
 C         1.875668         0.750300        -3.081686
 C         0.906201         1.606733        -3.789724
 O         2.004564         0.710599        -4.419522
 C         3.014908         1.404096        -2.014041
 C         2.263565         1.180738        -0.686825
 O         2.403149        -0.090910        -0.108819
 H         0.071986         0.167218         1.182514
 H        -0.679495         1.215819        -0.186244
 H        -0.699758        -0.545187        -0.483603
 H         1.859698        -1.208122        -2.284283
 H         0.216100        -0.663004        -2.560620
 H        -0.087875         1.246886        -3.625298
 H         1.160439         2.596656        -4.005893
 H         3.961626         0.888109        -1.770224
 H         3.062943         2.423974        -2.234713
 H         2.298394         1.917486         0.118895
