19
Iteration:  2114
 C         0.054176         0.087847         0.251574
 C         1.152415         0.235152        -0.717465
 C         1.009446        -0.172001        -2.195758
 C         1.745285         0.969597        -2.982707
 C         1.177756         1.412605        -4.260401
 O         2.313425         0.527817        -4.208365
 C         2.480711         1.779599        -1.985898
 C         2.237778         1.240933        -0.610170
 O         2.501479        -0.191137        -0.352904
 H        -0.472277         1.018259         0.506661
 H        -0.734766        -0.764538        -0.039133
 H         0.508103        -0.209550         1.108466
 H         1.408703        -1.226615        -2.408266
 H         0.023037        -0.290783        -2.731241
 H         0.193577         0.955474        -4.544252
 H         1.385444         2.446228        -4.695953
 H         3.564788         1.713086        -2.408067
 H         2.291080         2.858192        -1.719120
 H         2.356686         1.792084         0.306109
