19
Iteration:  4063
 C         0.098124        -0.129740         0.347171
 C         1.175034         0.176436        -0.686180
 C         0.844290        -0.024648        -2.177289
 C         1.653878         0.948803        -3.001016
 C         1.261943         1.473670        -4.342966
 O         2.314936         0.503222        -4.262361
 C         2.608851         1.701059        -1.993945
 C         2.125499         1.289404        -0.628421
 O         2.560876        -0.067959        -0.324322
 H        -0.701975        -0.684884        -0.175194
 H         0.362227        -0.627968         1.288926
 H        -0.451078         0.758257         0.741295
 H         1.111273        -1.080073        -2.618867
 H        -0.173604         0.274394        -2.292307
 H         0.355992         1.102144        -4.800151
 H         1.506029         2.514222        -4.465832
 H         3.503280         1.120412        -2.148330
 H         2.801069         2.760811        -2.159310
 H         2.316200         2.004682         0.191769
