19
Iteration:  3986charge 0 multiplicity 1
 C         0.153401        -0.029605         0.317429
 C         1.186239         0.192533        -0.794220
 C         0.739660         0.029831        -2.202315
 C         1.667090         0.973700        -2.942044
 C         1.332892         1.424977        -4.279613
 O         2.327822         0.384922        -4.124911
 C         2.482502         1.871180        -1.930790
 C         2.242835         1.209921        -0.589455
 O         2.557672        -0.195909        -0.527385
 H        -0.010964        -1.087704         0.651820
 H         0.373312         0.393159         1.373997
 H        -0.766312         0.444784         0.053022
 H         0.778793        -1.044967        -2.681795
 H        -0.253805         0.409071        -2.267258
 H         0.396664         1.280787        -4.833492
 H         1.764070         2.347476        -4.667553
 H         3.543463         1.842586        -2.103971
 H         1.985738         2.842859        -1.955810
 H         2.223864         1.792056         0.300064
