19
Iteration:  4441
 C         0.214463        -0.244881         0.404350
 C         1.204502         0.210757        -0.715914
 C         0.620351         0.233859        -2.218226
 C         1.658220         0.956961        -2.978934
 C         1.464678         1.366294        -4.369528
 O         2.347173         0.274255        -4.084560
 C         2.343377         1.954344        -1.913108
 C         2.241027         1.314914        -0.605336
 O         2.579777        -0.151522        -0.582700
 H         0.507155        -1.369223         0.587042
 H         0.220613         0.342016         1.415065
 H        -0.789733        -0.334847         0.021796
 H         0.539059        -0.820622        -2.599824
 H        -0.368453         0.818125        -2.247823
 H         0.504905         1.101809        -4.828649
 H         2.076334         2.243911        -4.566480
 H         3.371831         2.228738        -2.340720
 H         1.639828         2.762136        -1.893235
 H         2.366368         1.873677         0.269670
