19
Iteration:  3666charge 0 multiplicity 1
 C         0.119052        -0.104211         0.379887
 C         1.149247         0.207649        -0.750590
 C         0.784697         0.032594        -2.202490
 C         1.731164         0.906743        -2.969179
 C         1.386170         1.503796        -4.268155
 O         2.262713         0.360662        -4.239029
 C         2.570406         1.801197        -1.953043
 C         2.086057         1.278504        -0.616900
 O         2.557356        -0.113698        -0.459757
 H        -0.110825        -1.222322         0.303669
 H         0.381926         0.113835         1.364498
 H        -0.695583         0.472713         0.427964
 H         0.868541        -1.048119        -2.581397
 H        -0.281844         0.254800        -2.345025
 H         0.398981         1.407201        -4.769034
 H         1.980657         2.376260        -4.579079
 H         3.692297         1.643334        -2.025349
 H         2.480934         2.939684        -1.976310
 H         2.094031         1.914136         0.303978
