19
Iteration:  4148
 C         0.112440        -0.034668         0.317501
 C         1.164602         0.098015        -0.708741
 C         0.810121        -0.032065        -2.194685
 C         1.656316         0.951540        -3.010053
 C         1.241935         1.480634        -4.343545
 O         2.359617         0.600802        -4.216816
 C         2.576780         1.692489        -2.009391
 C         2.176687         1.249656        -0.590843
 O         2.561000        -0.185208        -0.317628
 H        -0.054986        -0.977776         0.880016
 H         0.458298         0.683772         1.109625
 H        -0.715135         0.384928        -0.140337
 H         0.780621        -1.099217        -2.501824
 H        -0.232049         0.146526        -2.183154
 H         0.329975         1.015231        -4.863444
 H         1.442353         2.525170        -4.711135
 H         3.641643         1.491335        -2.320176
 H         2.465698         2.773057        -2.060750
 H         2.144249         1.861321         0.204504
