19
Iteration:  2055charge 0 multiplicity 1
 C         0.181346        -0.157348         0.283686
 C         1.134949         0.194382        -0.786313
 C         0.767962        -0.013456        -2.258146
 C         1.712609         0.877402        -3.004797
 C         1.259138         1.505439        -4.246906
 O         2.278760         0.441681        -4.234107
 C         2.677530         1.641312        -2.002777
 C         2.077265         1.317443        -0.631402
 O         2.532499         0.001738        -0.213678
 H        -0.572895         0.726795         0.393474
 H        -0.306725        -1.024315         0.154250
 H         0.869733        -0.216246         1.227542
 H         1.077718        -1.004792        -2.501094
 H        -0.207382         0.331997        -2.674216
 H         0.356608         1.261794        -4.778325
 H         1.594596         2.496212        -4.268359
 H         3.678907         1.362367        -2.325156
 H         2.576319         2.735631        -2.008646
 H         2.072654         2.174951         0.092075
