19
Iteration:  2526charge 0 multiplicity 1
 C         0.107346        -0.077746         0.365961
 C         1.127971         0.238060        -0.665185
 C         0.805126        -0.041435        -2.159164
 C         1.705258         0.956706        -2.998368
 C         1.258947         1.403251        -4.309773
 O         2.416163         0.410566        -4.125367
 C         2.509174         1.871943        -1.992998
 C         2.221712         1.277966        -0.704775
 O         2.526334        -0.151069        -0.462009
 H        -0.537832         0.850408         0.720016
 H        -0.714433        -0.654001         0.008073
 H         0.549663        -0.553723         1.280724
 H         0.942571        -1.046678        -2.518276
 H        -0.285944         0.143146        -2.288828
 H         0.327068         0.977226        -4.762742
 H         1.618263         2.390774        -4.612991
 H         3.548962         1.815197        -2.448532
 H         2.181904         2.876622        -2.266154
 H         2.323000         1.824180         0.243135
