19
Iteration:  1502charge 0 multiplicity 1
 C        -0.006801         0.112817         0.278863
 C         1.127627         0.206698        -0.811313
 C         0.994895        -0.335412        -2.169871
 C         1.797031         0.815409        -3.035730
 C         1.094774         1.662686        -4.008957
 O         2.187562         0.782019        -4.443097
 C         2.873105         1.328081        -2.032003
 C         2.201905         1.268469        -0.706294
 O         2.431553        -0.029097        -0.197823
 H         0.311448         0.642653         1.271418
 H        -1.020886         0.561751         0.069340
 H        -0.153027        -0.874343         0.599695
 H         1.532073        -1.288180        -2.065969
 H        -0.052072        -0.540531        -2.506762
 H         0.112976         1.320870        -4.355338
 H         1.365095         2.743035        -4.035808
 H         3.685414         0.641096        -2.225685
 H         3.021259         2.339380        -2.361173
 H         2.149185         2.037210         0.064859
