19
Iteration:  2298charge 0 multiplicity 1
 C         0.255149        -0.091765         0.569803
 C         1.100348         0.186896        -0.784360
 C         0.567241         0.134151        -2.197583
 C         1.645076         1.093295        -2.919345
 C         1.489088         1.266352        -4.360941
 O         2.557157         0.329715        -4.008405
 C         2.270827         2.001945        -1.907436
 C         2.185878         1.159211        -0.653160
 O         2.529480        -0.219769        -0.772531
 H        -0.288033         0.979615         0.823569
 H        -0.571415        -0.802320         0.319087
 H         0.751623        -0.245848         1.432138
 H         0.734575        -0.835405        -2.752280
 H        -0.438627         0.542350        -2.419628
 H         0.583919         0.938800        -4.870947
 H         1.836838         2.199310        -4.807343
 H         3.383908         2.109747        -1.982479
 H         1.728538         2.909917        -2.002823
 H         2.588406         1.754921         0.169930
