19
Iteration:  2654
 C         0.091295         0.072775         0.280813
 C         1.180673         0.240082        -0.728193
 C         0.932883        -0.141376        -2.163907
 C         1.719118         0.926060        -2.971193
 C         1.257886         1.471569        -4.209808
 O         2.229878         0.510776        -4.239099
 C         2.571740         1.727656        -1.982676
 C         2.213174         1.210873        -0.642186
 O         2.486212        -0.175397        -0.406318
 H        -0.566204        -0.618923        -0.096696
 H         0.561713        -0.304016         1.184516
 H        -0.549261         1.041978         0.549561
 H         1.360115        -1.125893        -2.351805
 H        -0.119092         0.089517        -2.567690
 H         0.267286         1.188036        -4.556737
 H         1.567052         2.470508        -4.513110
 H         3.624457         1.674439        -2.171255
 H         2.337428         2.774666        -2.110479
 H         2.308144         1.671429         0.347539
