19
Iteration:  4730charge 0 multiplicity 1
 C         0.303759        -0.216609         0.516310
 C         1.087936         0.186740        -0.680222
 C         0.565783         0.129842        -2.206178
 C         1.620329         1.039975        -2.994490
 C         1.559241         1.500984        -4.479315
 O         2.320160         0.365866        -4.006414
 C         2.452158         1.860422        -1.909153
 C         2.170770         1.189601        -0.616814
 O         2.499629        -0.155024        -0.703884
 H         0.773068         0.221533         1.382858
 H        -0.771117         0.146176         0.465101
 H         0.191055        -1.329317         0.561671
 H         0.709378        -0.888597        -2.552868
 H        -0.394159         0.571789        -2.244628
 H         0.743445         1.186882        -5.090633
 H         2.134835         2.380997        -4.718155
 H         3.472589         1.637168        -2.121181
 H         2.261784         2.960798        -1.849952
 H         2.488879         1.766697         0.348003
