19
Iteration:  2289
 C         0.235586        -0.043934         0.529562
 C         1.096666         0.191206        -0.665532
 C         0.621815         0.138758        -2.260671
 C         1.657145         1.058950        -2.939610
 C         1.510042         1.296455        -4.381323
 O         2.477619         0.344469        -4.030822
 C         2.304172         1.978333        -1.936870
 C         2.177892         1.209980        -0.584325
 O         2.538511        -0.247564        -0.771891
 H        -0.489030         0.834716         0.751031
 H        -0.504870        -0.995462         0.363948
 H         0.817969        -0.375228         1.338622
 H         0.881854        -0.957759        -2.490195
 H        -0.441735         0.349621        -2.526577
 H         0.601309         0.820302        -4.820871
 H         1.795439         2.243892        -4.847368
 H         3.393259         2.198210        -2.201706
 H         1.882804         2.989262        -1.827544
 H         2.422904         1.701289         0.345719
