19
Iteration:   353charge 0 multiplicity 1
 C        -0.068465         0.433102        -0.172200
 C         1.194054         0.246889        -0.815988
 C         1.213351        -0.293983        -2.296086
 C         1.864503         0.819379        -2.971936
 C         0.919291         1.720564        -3.737553
 O         1.832706         0.810926        -4.437335
 C         3.090649         1.287730        -2.018659
 C         2.381126         1.023400        -0.640909
 O         2.376500        -0.242641         0.013900
 H        -0.684517        -0.527503        -0.281276
 H         0.074934         0.567373         0.860026
 H        -0.665806         1.262402        -0.657400
 H         1.809239        -1.205778        -2.433055
 H         0.215816        -0.528851        -2.682191
 H        -0.109817         1.500462        -3.908980
 H         1.211289         2.765900        -3.728731
 H         3.875064         0.471981        -2.017885
 H         3.368002         2.260338        -2.270515
 H         2.263188         1.822392         0.124604
