19
Iteration:  4264
 C         0.195814        -0.223381         0.462298
 C         1.112112         0.236133        -0.683409
 C         0.711128         0.217121        -2.173276
 C         1.726875         0.993706        -2.975967
 C         1.363891         1.330761        -4.396881
 O         2.442937         0.405988        -4.144963
 C         2.450003         1.857363        -1.945144
 C         2.132559         1.219608        -0.576475
 O         2.523353        -0.145067        -0.621135
 H        -0.356137        -1.103484         0.150123
 H         0.647332        -0.610783         1.437002
 H        -0.598506         0.512352         0.718489
 H         0.541849        -0.797528        -2.476811
 H        -0.319336         0.774264        -2.244329
 H         0.525017         0.871697        -4.893577
 H         1.634762         2.171800        -4.988997
 H         3.508277         2.063195        -2.149152
 H         2.135036         2.919633        -1.911997
 H         2.371457         1.768799         0.459914
