19
Iteration:  3149
 C         0.224348        -0.115311         0.479081
 C         1.064154         0.196063        -0.705312
 C         0.813959         0.052132        -2.261622
 C         1.642985         0.971563        -3.009681
 C         1.350215         1.502331        -4.322574
 O         2.340315         0.450822        -4.272035
 C         2.629762         1.648070        -1.938454
 C         2.093924         1.253351        -0.627011
 O         2.451408        -0.083952        -0.433403
 H        -0.037815        -1.284738         0.475935
 H         0.908860         0.102040         1.415924
 H        -0.605171         0.471099         0.598170
 H         0.721342        -0.999300        -2.427643
 H        -0.253301         0.302484        -2.322322
 H         0.391360         1.185003        -4.726103
 H         1.719144         2.468669        -4.707644
 H         3.709359         1.518464        -2.171818
 H         2.582923         2.688948        -2.056706
 H         2.211064         1.902535         0.212509
