19
Iteration:  4056charge 0 multiplicity 1
 C         0.105926        -0.149482         0.342451
 C         1.169823         0.235439        -0.696398
 C         0.840314        -0.058805        -2.157505
 C         1.623728         0.961187        -3.017737
 C         1.266586         1.496097        -4.366588
 O         2.333689         0.517438        -4.214489
 C         2.600317         1.656588        -2.015567
 C         2.157651         1.350294        -0.631335
 O         2.566934        -0.122523        -0.305213
 H        -0.632108        -0.790865        -0.107301
 H         0.426585        -0.706639         1.188120
 H        -0.366658         0.836181         0.665454
 H         0.978026        -1.033442        -2.444095
 H        -0.272138         0.215217        -2.396772
 H         0.349125         1.154944        -4.826792
 H         1.496159         2.524926        -4.662633
 H         3.476173         1.037334        -2.325217
 H         2.736230         2.771069        -2.113324
 H         2.083190         2.102433         0.236698
