19
Iteration:  1563charge 0 multiplicity 1
 C        -0.098171         0.133570         0.108491
 C         1.257166         0.202716        -0.693787
 C         1.035735        -0.142328        -2.233215
 C         1.719832         0.924551        -2.931201
 C         1.127131         1.646827        -4.085799
 O         2.044192         0.568224        -4.376722
 C         2.799971         1.509131        -2.073669
 C         2.296035         1.266865        -0.572550
 O         2.526630        -0.224271        -0.186308
 H        -0.237623         0.930511         0.892220
 H        -0.872067         0.198596        -0.613972
 H        -0.152360        -0.976686         0.538472
 H         1.604961        -1.083049        -2.203682
 H        -0.011205        -0.432487        -2.370039
 H         0.087104         1.487800        -4.467045
 H         1.507957         2.653577        -4.205689
 H         3.756918         0.950446        -2.258641
 H         3.131398         2.524924        -2.375080
 H         2.245633         2.070509         0.239067
