19
Iteration:  2703
 C         0.139324        -0.036604         0.321979
 C         1.186049         0.212728        -0.780898
 C         0.800185        -0.031129        -2.171390
 C         1.682604         0.961308        -3.014500
 C         1.222070         1.500557        -4.239766
 O         2.264115         0.516394        -4.215894
 C         2.683535         1.669768        -2.006245
 C         2.184196         1.251554        -0.642482
 O         2.499982        -0.195785        -0.321150
 H         0.045257        -1.136069         0.749164
 H         0.189441         0.781922         1.071367
 H        -0.776382         0.052069        -0.144638
 H         1.082623        -0.985654        -2.605058
 H        -0.212455         0.266874        -2.207356
 H         0.326388         1.188460        -4.786923
 H         1.624365         2.465707        -4.574766
 H         3.790365         1.456391        -2.157930
 H         2.618019         2.785491        -2.130305
 H         2.161897         1.976185         0.164111
