19
Iteration:   723
 C        -0.022784         0.170816         0.264129
 C         1.151594         0.216607        -0.696706
 C         0.911176        -0.146036        -2.147961
 C         1.696159         0.971307        -2.922519
 C         1.239269         1.599280        -4.203168
 O         2.223855         0.603774        -4.323183
 C         2.679462         1.561333        -2.026948
 C         2.304227         1.118897        -0.631177
 O         2.483121        -0.287678        -0.375067
 H        -0.380902         1.258435         0.517216
 H        -0.898119        -0.379480        -0.066055
 H         0.292910        -0.166521         1.180573
 H         1.396359        -1.128804        -2.279598
 H        -0.154614        -0.128701        -2.393861
 H         0.246297         1.454008        -4.654395
 H         1.601553         2.611233        -4.391529
 H         3.726699         1.366252        -2.290140
 H         2.786931         2.653007        -1.917871
 H         2.410547         1.812310         0.218975
