19
Iteration:  3178
 C         0.083118        -0.126952         0.347117
 C         1.186356         0.247060        -0.619660
 C         0.760823         0.002998        -2.183580
 C         1.636010         0.933663        -2.976092
 C         1.271100         1.436335        -4.302444
 O         2.368709         0.490281        -4.132023
 C         2.620829         1.804997        -2.030199
 C         2.242488         1.258624        -0.668360
 O         2.500611        -0.177734        -0.469498
 H        -0.461540        -0.798678        -0.228290
 H         0.412614        -0.432886         1.305058
 H        -0.663528         0.735848         0.418140
 H         0.846418        -1.143965        -2.216591
 H        -0.321649         0.370577        -2.261437
 H         0.341811         0.998323        -4.725849
 H         1.551236         2.393059        -4.762989
 H         3.659885         1.748154        -2.356440
 H         2.307587         2.895199        -2.209755
 H         2.665135         1.873613         0.246715
