19
Iteration:   698charge 0 multiplicity 1
 C         0.127957         0.141674         0.390675
 C         1.139331         0.121654        -0.716328
 C         0.748745        -0.010726        -2.294083
 C         1.738605         0.964339        -3.007510
 C         1.301720         1.639853        -4.310245
 O         2.256921         0.500528        -4.203108
 C         2.628239         1.655116        -2.021652
 C         2.255846         1.083000        -0.618796
 O         2.462044        -0.291024        -0.335591
 H        -0.581884         0.959256         0.408072
 H        -0.499418        -0.877581         0.350308
 H         0.666032         0.179579         1.380585
 H         1.031989        -1.027657        -2.513161
 H        -0.304152         0.223324        -2.462512
 H         0.321415         1.603121        -4.847694
 H         1.883039         2.619507        -4.454638
 H         3.648430         1.662200        -2.270815
 H         2.512013         2.781314        -1.935837
 H         2.382245         1.696783         0.281525
