19
Iteration:  1705
 C         0.037194        -0.092603         0.299821
 C         1.166107         0.208241        -0.711295
 C         0.761858         0.178596        -2.181750
 C         1.766080         1.022061        -2.934152
 C         1.284212         1.453410        -4.280993
 O         2.211491         0.417237        -4.234004
 C         2.709186         1.690527        -2.005300
 C         2.258351         1.219837        -0.597998
 O         2.512611        -0.209182        -0.413163
 H         0.230679         0.212849         1.292116
 H        -0.895478         0.324695         0.101832
 H        -0.035024        -1.256733         0.285506
 H         0.707446        -0.854858        -2.513936
 H        -0.213941         0.646615        -2.316005
 H         0.296879         1.062252        -4.513305
 H         1.501680         2.409424        -4.773625
 H         3.804729         1.630014        -2.227186
 H         2.573091         2.776475        -1.921174
 H         2.501152         1.877362         0.262077
