19
Iteration:  1341
 C         0.102777        -0.051813         0.293886
 C         1.097908         0.262329        -0.751110
 C         0.882554        -0.084160        -2.225366
 C         1.795383         0.863909        -2.975894
 C         1.276462         1.666305        -4.163338
 O         2.105083         0.450691        -4.291663
 C         2.774809         1.590723        -2.022939
 C         2.227045         1.292155        -0.665871
 O         2.408791        -0.105947        -0.313396
 H         0.401918         0.366364         1.185547
 H        -0.890005         0.318989        -0.033246
 H         0.126791        -1.246532         0.623211
 H         1.402274        -1.075515        -2.199103
 H        -0.194229         0.037586        -2.512144
 H         0.283443         1.508250        -4.556417
 H         1.766851         2.621622        -4.311433
 H         3.815316         1.126580        -2.023778
 H         2.742289         2.751352        -2.213185
 H         2.280779         1.925345         0.227702
