19
Iteration:   866charge 0 multiplicity 1
 C        -0.130514         0.344148        -0.001921
 C         1.137955         0.252946        -0.794146
 C         1.263641        -0.409819        -2.215008
 C         1.903899         0.822651        -2.986585
 C         0.935297         1.637254        -3.815402
 O         1.987326         0.671969        -4.423332
 C         2.947648         1.477518        -2.033541
 C         2.341066         1.196840        -0.694175
 O         2.388663        -0.171493        -0.127637
 H         0.063231         0.123597         1.189637
 H        -0.790785         1.241716        -0.195019
 H        -0.772359        -0.507253        -0.233727
 H         1.933047        -1.276676        -2.149368
 H         0.255558        -0.642508        -2.558502
 H        -0.090914         1.316657        -4.087881
 H         1.033742         2.670263        -4.061138
 H         3.952487         1.037360        -2.149699
 H         3.148562         2.510971        -2.125713
 H         2.307225         1.984538         0.059206
