19
Iteration:  2479charge 0 multiplicity 1
 C         0.221776        -0.009133         0.498593
 C         1.117869         0.146993        -0.701840
 C         0.669116         0.055447        -2.210477
 C         1.661747         0.966619        -3.029630
 C         1.427245         1.340640        -4.390849
 O         2.458851         0.396201        -4.051279
 C         2.364509         1.965011        -1.968247
 C         2.143307         1.205684        -0.626485
 O         2.559835        -0.212270        -0.625270
 H        -0.465196         0.786633         0.479282
 H        -0.481060        -0.855206         0.521313
 H         0.890313         0.004073         1.510672
 H         0.702700        -0.948002        -2.569204
 H        -0.418684         0.313716        -2.185362
 H         0.642202         0.862267        -4.945878
 H         1.777165         2.301256        -4.754752
 H         3.437800         2.100598        -2.098174
 H         1.912224         3.002533        -1.915312
 H         2.295050         1.748124         0.305847
