19
Iteration:  4557charge 0 multiplicity 1
 C         0.127037        -0.160029         0.154354
 C         1.134410         0.268499        -0.710623
 C         0.906517        -0.013107        -2.180654
 C         1.673820         0.980764        -2.951902
 C         1.200125         1.448198        -4.331061
 O         2.245225         0.434437        -4.062716
 C         2.579117         1.770668        -2.025776
 C         2.164321         1.317497        -0.609453
 O         2.601062        -0.133673        -0.362585
 H        -0.404275        -0.929755        -0.273721
 H         0.517039        -0.401063         1.191118
 H        -0.642599         0.566232         0.309337
 H         1.420560        -1.035138        -2.433434
 H        -0.170159        -0.082480        -2.505526
 H         0.188498         1.253974        -4.715206
 H         1.586040         2.424208        -4.562372
 H         3.626028         1.562764        -2.310585
 H         2.292681         2.850257        -1.956646
 H         2.472991         1.952778         0.312508
