19
Iteration:  3066
 C         0.108181        -0.069884         0.378108
 C         1.184574         0.195522        -0.710964
 C         0.738308         0.198504        -2.283568
 C         1.741211         1.039993        -2.951381
 C         1.264534         1.341836        -4.298554
 O         2.323002         0.450659        -4.100704
 C         2.575617         1.848027        -1.940886
 C         2.284682         1.174508        -0.642622
 O         2.507519        -0.257022        -0.520628
 H         0.317461        -0.892900         0.968790
 H        -0.152819         0.712781         1.081181
 H        -0.829416        -0.436316        -0.167328
 H         0.745661        -0.892969        -2.614800
 H        -0.284480         0.653126        -2.408769
 H         0.334606         0.797336        -4.481087
 H         1.410284         2.202245        -4.974170
 H         3.617736         1.699177        -2.238999
 H         2.121794         2.855458        -1.728754
 H         2.524489         1.781859         0.285311
