19
Iteration:  1859charge 0 multiplicity 1
 C         0.357287        -0.412283         0.277692
 C         1.118485         0.283559        -0.755544
 C         0.479109         0.513966        -2.100140
 C         1.616842         1.065306        -2.948878
 C         1.581436         1.295078        -4.429066
 O         2.313678         0.141581        -3.767994
 C         2.423919         1.984105        -1.992133
 C         2.305960         1.256953        -0.646025
 O         2.457239        -0.186207        -0.708424
 H         1.042793        -1.207966         0.761957
 H         0.133329         0.364081         0.896754
 H        -0.649549        -0.814649        -0.037044
 H         0.028770        -0.275714        -2.642942
 H        -0.351900         1.267801        -1.880100
 H         0.736592         0.902407        -4.987465
 H         2.124453         2.119023        -4.871012
 H         3.469796         2.067562        -2.382106
 H         1.856259         2.952924        -1.996371
 H         2.528552         1.809884         0.278088
