19
Iteration:  4291charge 0 multiplicity 1
 C         0.274612        -0.167274         0.406270
 C         1.074859         0.254345        -0.773578
 C         0.627124         0.153960        -2.167293
 C         1.566958         1.048143        -2.894795
 C         1.442905         1.301340        -4.305918
 O         2.475473         0.389496        -3.863547
 C         2.391100         2.002966        -2.034545
 C         2.266494         1.213441        -0.685309
 O         2.483328        -0.211458        -0.737174
 H        -0.497087        -0.910784         0.021205
 H         0.780103        -0.797912         1.103768
 H        -0.310631         0.622573         0.927231
 H         0.779778        -0.951992        -2.443376
 H        -0.435864         0.276387        -2.302745
 H         0.728170         0.822363        -5.053920
 H         1.832770         2.238399        -4.842941
 H         3.429591         2.016394        -2.463018
 H         2.023287         3.042914        -1.815594
 H         2.454420         1.434660         0.326799
