19
Iteration:  1255charge 0 multiplicity 1
 C         0.236566         0.089297         0.587875
 C         1.115606         0.189639        -0.732332
 C         0.708675        -0.001144        -2.222013
 C         1.654286         0.950876        -3.017212
 C         1.327533         1.483974        -4.379767
 O         2.434187         0.511031        -4.138143
 C         2.566929         1.709415        -1.994708
 C         2.172678         1.185515        -0.650814
 O         2.443847        -0.280769        -0.513966
 H         0.760645         0.028793         1.480118
 H        -0.570481         0.854109         0.678981
 H        -0.511889        -0.762586         0.314322
 H         0.692838        -1.082485        -2.493288
 H        -0.306927         0.256168        -2.639255
 H         0.431374         1.155096        -4.872347
 H         1.645649         2.459728        -4.688623
 H         3.605376         1.910063        -2.230087
 H         2.210792         2.781408        -2.078447
 H         2.462151         1.739193         0.251238
