19
Iteration:  2995charge 0 multiplicity 1
 C         0.332522        -0.190433         0.459068
 C         1.089776         0.327973        -0.736324
 C         0.569013         0.226481        -2.135861
 C         1.581199         1.022960        -2.946304
 C         1.667561         1.422404        -4.354638
 O         2.286611         0.256325        -3.966810
 C         2.357066         1.898282        -1.936377
 C         2.275373         1.214380        -0.676677
 O         2.476609        -0.266766        -0.764194
 H         0.925368        -0.367777         1.436777
 H        -0.500483         0.533234         0.688363
 H        -0.177071        -1.149745         0.247834
 H         0.379763        -0.685110        -2.637460
 H        -0.345930         0.807226        -2.142046
 H         0.861902         1.355908        -5.113311
 H         2.363847         2.249119        -4.515409
 H         3.470953         1.992698        -2.173352
 H         1.664982         2.818914        -1.925635
 H         2.523397         1.858482         0.133743
