19
Iteration:  3183charge 0 multiplicity 1
 C         0.047994        -0.092927         0.302333
 C         1.224082         0.230798        -0.681067
 C         0.785326         0.008614        -2.124342
 C         1.627194         0.951374        -2.944806
 C         1.268687         1.425599        -4.306755
 O         2.359659         0.466790        -4.117856
 C         2.587035         1.803534        -2.009390
 C         2.283997         1.278214        -0.661800
 O         2.507017        -0.175832        -0.486791
 H        -0.629153        -0.887426        -0.277433
 H         0.434938        -0.504838         1.309820
 H        -0.583537         0.767409         0.379359
 H         0.937497        -1.038561        -2.291195
 H        -0.198564         0.442444        -2.249855
 H         0.370611         0.976264        -4.715300
 H         1.496363         2.423062        -4.710078
 H         3.578056         1.653187        -2.486103
 H         2.099384         2.756832        -1.936469
 H         2.593224         1.815846         0.147331
