19
Iteration:   448
 C         0.114575         0.077878         0.387419
 C         1.103961         0.213765        -0.720149
 C         0.785002         0.025879        -2.214700
 C         1.766656         0.959526        -3.022997
 C         1.286398         1.728334        -4.230338
 O         2.194199         0.567785        -4.314626
 C         2.787191         1.461115        -1.999976
 C         2.249961         1.150619        -0.587155
 O         2.374787        -0.282261        -0.376625
 H        -0.075531        -1.029755         0.531830
 H         0.500409         0.462305         1.439615
 H        -0.806800         0.475920         0.153460
 H         0.931126        -1.022604        -2.494169
 H        -0.290384         0.235267        -2.477421
 H         0.255224         1.558105        -4.564386
 H         1.771048         2.606646        -4.647380
 H         3.637748         0.790207        -1.986707
 H         3.002643         2.544073        -2.109577
 H         2.688174         1.728396         0.247535
