19
Iteration:    82
 C         0.410171        -0.450688         0.327829
 C         1.112355         0.352585        -0.774183
 C         0.434928         0.800169        -2.179886
 C         1.544964         1.286294        -2.894619
 C         1.702291         1.207269        -4.371737
 O         2.241547         0.132390        -3.585868
 C         2.486271         1.906195        -1.926441
 C         2.341642         1.117274        -0.625969
 O         2.317648        -0.314411        -1.033679
 H         0.610565        -1.521684         0.101873
 H         0.781782        -0.313289         1.335815
 H        -0.744538        -0.057482         0.368445
 H        -0.072983        -0.122024        -2.531720
 H        -0.255721         1.612457        -1.908433
 H         0.704093         1.170668        -5.034200
 H         2.667446         1.664387        -4.801476
 H         3.487163         1.823077        -2.474611
 H         2.465971         3.019567        -1.762341
 H         2.853588         1.321138         0.341772
