19
Iteration:  1760
 C         0.265147        -0.089133         0.599020
 C         1.091535         0.205639        -0.691734
 C         0.571602         0.226911        -2.107354
 C         1.603293         1.052565        -3.053912
 C         1.595629         1.535430        -4.470849
 O         2.373768         0.329596        -3.970444
 C         2.408568         1.884308        -2.026476
 C         2.212636         1.147176        -0.670080
 O         2.459440        -0.348025        -0.715481
 H         0.573653         0.498329         1.475990
 H        -0.732944         0.004514         0.323294
 H         0.412327        -1.220285         0.865565
 H         0.475780        -0.821926        -2.282567
 H        -0.420442         0.632429        -2.334752
 H         0.798566         1.339235        -5.153802
 H         2.288356         2.337269        -4.782776
 H         3.486376         1.838018        -2.287748
 H         2.133193         2.890588        -1.722351
 H         2.519693         1.554820         0.306437
