19
Iteration:  4059
 C         0.104862        -0.136416         0.344050
 C         1.167767         0.216795        -0.696058
 C         0.840721        -0.045095        -2.159978
 C         1.629966         0.952499        -3.010954
 C         1.269733         1.486945        -4.361415
 O         2.328865         0.510139        -4.233791
 C         2.605341         1.678363        -2.001710
 C         2.144696         1.339552        -0.628528
 O         2.569132        -0.107424        -0.311082
 H        -0.674886        -0.769271        -0.149081
 H         0.371827        -0.708904         1.295907
 H        -0.366790         0.760922         0.681251
 H         1.053300        -1.079139        -2.540974
 H        -0.190265         0.270088        -2.370318
 H         0.301203         1.122901        -4.830536
 H         1.483868         2.579457        -4.584834
 H         3.446955         1.003886        -2.298168
 H         2.743710         2.751816        -2.097161
 H         2.162340         2.039820         0.172905
