19
Iteration:  4739
 C         0.343827        -0.211574         0.503284
 C         1.100142         0.216985        -0.774890
 C         0.641373         0.207717        -2.214041
 C         1.598870         1.079518        -2.938809
 C         1.594212         1.482427        -4.371843
 O         2.294868         0.323761        -3.956746
 C         2.409987         1.841678        -1.981910
 C         2.138706         1.184852        -0.638855
 O         2.479274        -0.218366        -0.697263
 H         0.726176         0.285289         1.336080
 H        -0.717191         0.120842         0.368084
 H         0.516944        -1.340677         0.708629
 H         0.594769        -0.804632        -2.533648
 H        -0.377952         0.465456        -2.476754
 H         0.723851         1.295027        -5.037039
 H         2.104630         2.420659        -4.624047
 H         3.533816         1.939096        -2.131671
 H         2.063509         2.933573        -2.071554
 H         2.365699         1.694807         0.311129
