19
Iteration:  2144charge 0 multiplicity 1
 C         0.069659         0.103956         0.304819
 C         1.195908         0.120526        -0.671518
 C         0.856262        -0.173271        -2.272269
 C         1.757666         0.893370        -2.994325
 C         1.201124         1.480590        -4.272626
 O         2.370917         0.575779        -4.244347
 C         2.501207         1.727133        -2.011425
 C         2.142432         1.230212        -0.615311
 O         2.600460        -0.161472        -0.306882
 H        -0.734645         0.939956         0.048269
 H        -0.421606        -0.837236         0.451953
 H         0.461264         0.254487         1.316676
 H         1.102395        -1.194790        -2.561039
 H        -0.239476         0.079011        -2.495451
 H         0.280409         1.042412        -4.629837
 H         1.352048         2.501235        -4.636737
 H         3.587192         1.681229        -2.284536
 H         2.239579         2.786404        -1.921699
 H         2.001985         1.847130         0.307516
