19
Iteration:  2465
 C         0.220901        -0.050154         0.454356
 C         1.167593         0.145606        -0.787154
 C         0.687225         0.132638        -2.174069
 C         1.675562         0.988663        -2.840262
 C         1.457823         1.329493        -4.363736
 O         2.427074         0.331056        -3.967873
 C         2.332600         1.862679        -1.972012
 C         2.129795         1.240791        -0.662024
 O         2.531765        -0.143579        -0.718509
 H        -0.571348         0.695949         0.410515
 H        -0.124432        -1.179700         0.560038
 H         0.809407         0.238791         1.350920
 H         0.721788        -0.913858        -2.693665
 H        -0.222551         0.726457        -2.471982
 H         0.499273         1.011012        -4.802707
 H         1.895280         2.298658        -4.718582
 H         3.326976         2.099728        -2.345264
 H         1.732176         2.821072        -2.087802
 H         2.390299         1.718314         0.301694
