19
Iteration:  4007
 C         0.090654        -0.062909         0.405954
 C         1.113325         0.168215        -0.711066
 C         0.807219         0.045396        -2.119222
 C         1.813497         0.891145        -2.984639
 C         1.339502         1.484088        -4.297599
 O         2.292666         0.405007        -4.246611
 C         2.543765         1.837565        -1.951042
 C         2.103698         1.275851        -0.586209
 O         2.554260        -0.149466        -0.534629
 H        -0.300403        -1.124216         0.360177
 H         0.593533        -0.099571         1.456078
 H        -0.710857         0.633961         0.333317
 H         1.054661        -1.032059        -2.630080
 H        -0.190916         0.139219        -2.381369
 H         0.283559         1.259225        -4.575310
 H         1.624713         2.434728        -4.791651
 H         3.639876         1.824167        -2.116491
 H         2.173307         2.821505        -2.170197
 H         2.395638         1.702578         0.319947
