19
Iteration:   981
 C         0.090436        -0.087213         0.359271
 C         1.072802         0.251942        -0.744380
 C         0.813562         0.016312        -2.214312
 C         1.791064         0.958209        -3.021772
 C         1.331336         1.680673        -4.166994
 O         2.161010         0.378947        -4.300221
 C         2.712583         1.603148        -2.049541
 C         2.203652         1.243972        -0.627221
 O         2.498957        -0.139555        -0.317334
 H         0.414114         0.247803         1.267056
 H        -0.932576         0.297096         0.078347
 H        -0.144128        -1.234720         0.423475
 H         1.093806        -1.029713        -2.451582
 H        -0.266724         0.230171        -2.336718
 H         0.301788         1.737437        -4.566114
 H         1.945932         2.563428        -4.359314
 H         3.616160         0.979732        -2.047740
 H         2.867279         2.677310        -2.326135
 H         2.206942         2.017342         0.159873
