19
Iteration:    96charge 0 multiplicity 1
 C         0.360221        -0.345211         0.330064
 C         1.091363         0.293983        -0.782261
 C         0.369266         0.734707        -2.061418
 C         1.614877         1.242624        -2.949703
 C         1.727807         1.244723        -4.433169
 O         2.204940         0.144954        -3.703389
 C         2.538776         1.914850        -1.856524
 C         2.318691         1.076459        -0.629648
 O         2.416344        -0.313037        -0.979683
 H         0.176362        -1.365616         0.031600
 H         0.998176        -0.249321         1.372509
 H        -0.625074        -0.038143         0.476075
 H        -0.159597        -0.026865        -2.708747
 H        -0.386651         1.520082        -1.905403
 H         0.882998         0.903764        -5.005271
 H         2.309125         2.004942        -4.959730
 H         3.615210         1.921138        -2.055990
 H         2.146587         2.956682        -1.658069
 H         2.693167         1.427687         0.313583
