19
Iteration:  2321charge 0 multiplicity 1
 C         0.320704        -0.097988         0.453153
 C         1.158229         0.170101        -0.780183
 C         0.517173         0.248170        -2.152401
 C         1.622749         0.990373        -2.944150
 C         1.562598         1.269178        -4.450536
 O         2.493534         0.399554        -3.789042
 C         2.235766         1.963866        -2.030434
 C         2.194170         1.199744        -0.604101
 O         2.527581        -0.284216        -0.765985
 H        -0.236955         0.803660         0.981671
 H        -0.415400        -0.938815         0.118905
 H         0.953386        -0.445482         1.159555
 H         0.248621        -0.799592        -2.521228
 H        -0.288757         0.986023        -2.316617
 H         0.872117         0.717567        -5.103741
 H         1.791482         2.265349        -4.811951
 H         3.285618         2.218834        -2.329898
 H         1.635111         2.858380        -1.996814
 H         2.339398         1.878729         0.189508
