19
Iteration:  4775charge 0 multiplicity 1
 C         0.275407        -0.254615         0.431847
 C         1.087993         0.243639        -0.724280
 C         0.537357         0.341867        -2.125573
 C         1.569440         1.050835        -2.973121
 C         1.546637         1.339087        -4.415802
 O         2.404027         0.349970        -3.910533
 C         2.375649         1.901060        -1.926790
 C         2.280152         1.167930        -0.613688
 O         2.560830        -0.230618        -0.820454
 H         0.205941         0.514939         1.260449
 H        -0.795020        -0.383931         0.071309
 H         0.397224        -1.275016         0.797662
 H         0.295863        -0.673184        -2.510668
 H        -0.255190         1.063655        -2.057433
 H         0.754411         0.944123        -5.018902
 H         2.097704         2.235290        -4.679965
 H         3.355490         2.153050        -2.243905
 H         1.679248         2.791939        -1.839291
 H         2.612143         1.557636         0.461806
