19
Iteration:   449charge 0 multiplicity 1
 C         0.117998         0.076648         0.389088
 C         1.098906         0.212897        -0.714759
 C         0.780069         0.034927        -2.219397
 C         1.771569         0.962180        -3.016794
 C         1.289074         1.723314        -4.234452
 O         2.192820         0.562025        -4.312450
 C         2.776880         1.471321        -1.999565
 C         2.258301         1.147318        -0.585864
 O         2.373936        -0.277446        -0.379433
 H        -0.073388        -1.052178         0.524492
 H         0.500394         0.467657         1.409747
 H        -0.809437         0.441219         0.136867
 H         0.938244        -1.016354        -2.491933
 H        -0.288861         0.224801        -2.477580
 H         0.282063         1.579415        -4.567292
 H         1.770157         2.600647        -4.641910
 H         3.637048         0.769224        -2.033732
 H         2.995731         2.520420        -2.097411
 H         2.708375         1.691815         0.268239
