19
Iteration:  1957
 C         0.070449        -0.000671         0.480165
 C         1.214126         0.139426        -0.737646
 C         0.689159         0.109412        -2.174352
 C         1.633330         1.048737        -2.985749
 C         1.399480         1.324013        -4.402969
 O         2.429957         0.469516        -4.173213
 C         2.425838         1.868435        -1.894360
 C         2.224404         1.151123        -0.585401
 O         2.589716        -0.253985        -0.602097
 H        -0.797079        -0.581768         0.065608
 H         0.453040        -0.437504         1.288525
 H        -0.314876         1.022317         0.816789
 H         0.581981        -0.925903        -2.407126
 H        -0.303091         0.661038        -2.051680
 H         0.549698         0.745499        -4.800119
 H         1.601123         2.211167        -4.933039
 H         3.534522         1.988439        -2.108190
 H         1.918739         2.892144        -1.880766
 H         2.442479         1.605812         0.393402
