19
Iteration:  1111charge 0 multiplicity 1
 C         0.383848        -0.280400         0.445766
 C         1.151952         0.231362        -0.750171
 C         0.476753         0.542868        -2.139568
 C         1.484594         1.136037        -2.952699
 C         1.763012         1.271877        -4.445911
 O         2.275953         0.178827        -3.711640
 C         2.321048         1.977203        -1.972998
 C         2.267364         1.156175        -0.720762
 O         2.500037        -0.259443        -0.838956
 H         0.952691        -0.328814         1.297614
 H        -0.558088         0.259616         0.692026
 H         0.079704        -1.392894         0.058647
 H         0.008264        -0.352752        -2.596055
 H        -0.410124         1.190823        -1.988772
 H         1.104282         0.950068        -5.221339
 H         2.537566         1.955845        -4.659495
 H         3.268315         2.243036        -2.434868
 H         1.964322         2.980616        -1.763770
 H         2.302356         1.673870         0.245035
