19
Iteration:  4733charge 0 multiplicity 1
 C         0.310309        -0.223376         0.514509
 C         1.106512         0.198302        -0.697609
 C         0.587254         0.148011        -2.214639
 C         1.616574         1.052100        -2.974571
 C         1.573093         1.501323        -4.464907
 O         2.306128         0.353432        -3.990413
 C         2.437387         1.858386        -1.926781
 C         2.155051         1.166094        -0.619237
 O         2.488619        -0.160302        -0.704651
 H         0.795809         0.308652         1.401239
 H        -0.727571         0.131985         0.439619
 H         0.276161        -1.283697         0.570220
 H         0.708966        -0.934926        -2.526725
 H        -0.433507         0.599294        -2.339155
 H         0.742729         1.174783        -5.075956
 H         2.127775         2.430182        -4.670046
 H         3.500683         1.713522        -2.089482
 H         2.233415         2.915893        -1.914130
 H         2.470541         1.761814         0.302212
