19
Iteration:   247
 C        -0.101964         0.142317         0.085895
 C         1.145517         0.296715        -0.773931
 C         0.997082        -0.223509        -2.273019
 C         1.803978         0.875588        -2.984517
 C         1.133829         1.806493        -3.959872
 O         1.929518         0.745981        -4.367348
 C         3.045659         1.218771        -1.974391
 C         2.404307         1.138347        -0.619668
 O         2.380698        -0.206933        -0.168075
 H        -0.262386        -0.837518         0.471209
 H        -0.187195         0.940798         0.838885
 H        -0.918541         0.556467        -0.606856
 H         1.616416        -1.157642        -2.361121
 H         0.016546        -0.405001        -2.680717
 H         0.061732         1.748696        -4.289883
 H         1.631410         2.856137        -4.021041
 H         3.940072         0.673336        -2.240000
 H         3.333828         2.281860        -2.189046
 H         2.501416         1.985471         0.027750
