19
Iteration:  3612charge 0 multiplicity 1
 C         0.039262         0.022814         0.349259
 C         1.099014         0.246107        -0.629034
 C         0.838805        -0.086073        -2.083239
 C         1.643575         0.935093        -3.012257
 C         1.240263         1.431751        -4.362066
 O         2.446488         0.629408        -4.204689
 C         2.536317         1.717401        -2.053112
 C         2.249867         1.198731        -0.606208
 O         2.553749        -0.233072        -0.463763
 H        -0.826832        -0.833597         0.120095
 H         0.180467        -0.158850         1.411748
 H        -0.507100         0.968224         0.306119
 H         1.129499        -1.128395        -2.141626
 H        -0.179059         0.147650        -2.305548
 H         0.380705         0.889107        -4.809907
 H         1.472771         2.420011        -4.798408
 H         3.573849         1.558798        -2.374906
 H         2.198903         2.785578        -1.854398
 H         2.667221         1.743877         0.282110
