19
Iteration:  1003
 C         0.106070        -0.088449         0.316162
 C         1.208738         0.146308        -0.683781
 C         0.670223         0.054986        -2.188895
 C         1.650169         0.964139        -2.984436
 C         1.389713         1.564301        -4.366581
 O         2.233858         0.471604        -4.199382
 C         2.695071         1.638382        -1.980092
 C         2.242289         1.219349        -0.639699
 O         2.536493        -0.162501        -0.349538
 H         0.441288         0.117126         1.246866
 H        -0.659321         0.700193        -0.002614
 H        -0.519619        -1.094410         0.245190
 H         0.465860        -0.974001        -2.530218
 H        -0.247450         0.656632        -2.023338
 H         0.359077         1.470670        -4.767156
 H         1.895889         2.494860        -4.621859
 H         3.696886         1.300321        -2.202017
 H         2.389055         2.701325        -1.968189
 H         2.162252         2.008848         0.118274
