19
Iteration:  4608
 C         0.241136        -0.108084         0.443666
 C         1.085341         0.195602        -0.739127
 C         0.795406        -0.067829        -2.234607
 C         1.746125         0.799711        -3.042169
 C         1.296684         1.588171        -4.243105
 O         2.413944         0.561748        -4.278668
 C         2.494652         1.695695        -2.052109
 C         2.128327         1.292036        -0.640858
 O         2.473818        -0.117048        -0.317834
 H         0.439950        -1.130811         0.769130
 H         0.399395         0.621869         1.235650
 H        -0.911928        -0.206442         0.271175
 H         0.883180        -1.099834        -2.511682
 H        -0.192383         0.367945        -2.276946
 H         0.415176         1.216541        -4.739119
 H         1.374707         2.615752        -4.452383
 H         3.504400         1.430602        -2.274002
 H         2.220518         2.726627        -2.214346
 H         2.067742         1.922799         0.216179
