19
Iteration:  1605
 C         0.031776         0.149225         0.265849
 C         1.157240         0.259752        -0.763278
 C         0.970978        -0.215065        -2.216690
 C         1.742923         0.857640        -3.001976
 C         1.060730         1.572282        -4.106333
 O         2.210735         0.640102        -4.373293
 C         2.821594         1.544632        -2.053055
 C         2.242905         1.202838        -0.616259
 O         2.441558        -0.194363        -0.193099
 H         0.472885         0.215623         1.192665
 H        -0.712210         0.914118         0.153989
 H        -0.612651        -0.842480         0.215071
 H         1.508010        -1.099573        -2.588840
 H        -0.034026        -0.157026        -2.614921
 H         0.049487         1.343305        -4.493654
 H         1.357555         2.584618        -4.301362
 H         3.899410         1.254060        -2.140161
 H         2.831492         2.651672        -2.333625
 H         2.312985         1.870197         0.259115
