19
Iteration:  1114
 C         0.378555        -0.309068         0.426983
 C         1.150023         0.258923        -0.751911
 C         0.482423         0.518041        -2.114819
 C         1.505799         1.140144        -2.963331
 C         1.755825         1.283032        -4.458621
 O         2.260565         0.157345        -3.685407
 C         2.351698         1.974102        -1.964306
 C         2.269579         1.137451        -0.698322
 O         2.477990        -0.222145        -0.862010
 H         1.031079        -0.275133         1.339051
 H        -0.613690         0.234063         0.671976
 H         0.112766        -1.364303         0.024493
 H         0.052298        -0.336955        -2.659843
 H        -0.384152         1.197791        -2.010126
 H         1.035849         0.934090        -5.232306
 H         2.542814         2.021192        -4.688588
 H         3.290053         2.226140        -2.404226
 H         1.846521         2.955004        -1.819446
 H         2.389792         1.723724         0.214385
