19
Iteration:  2065charge 0 multiplicity 1
 C         0.150397        -0.112452         0.247955
 C         1.178397         0.243225        -0.745974
 C         0.834751        -0.061974        -2.238527
 C         1.724862         0.885710        -2.999651
 C         1.246924         1.499412        -4.213427
 O         2.295258         0.480643        -4.219241
 C         2.602323         1.625775        -2.063520
 C         2.131101         1.326899        -0.628460
 O         2.514569        -0.033132        -0.246209
 H        -0.520709         0.759631         0.486431
 H        -0.440071        -0.872779        -0.096130
 H         0.664916        -0.343214         1.329272
 H         0.943273        -1.027352        -2.671685
 H        -0.279797         0.043467        -2.307331
 H         0.297110         1.213156        -4.630846
 H         1.655014         2.428652        -4.503326
 H         3.642334         1.447598        -2.012772
 H         2.489348         2.672228        -2.326910
 H         2.020263         1.964471         0.265060
