19
Iteration:  2259charge 0 multiplicity 1
 C         0.186641        -0.130896         0.344858
 C         1.144969         0.235737        -0.671749
 C         0.608992         0.078938        -2.224818
 C         1.632793         1.011306        -2.982836
 C         1.444049         1.409109        -4.335572
 O         2.388076         0.378558        -4.030552
 C         2.436272         1.864362        -2.045802
 C         2.249276         1.261587        -0.670915
 O         2.530854        -0.179512        -0.459727
 H        -0.673956         0.415477         0.307733
 H        -0.011055        -1.219483         0.124163
 H         0.680278        -0.173293         1.375483
 H         0.677990        -0.993054        -2.504542
 H        -0.452573         0.286799        -2.369008
 H         0.569524         0.973681        -4.870719
 H         1.811076         2.387588        -4.674677
 H         3.491216         1.857188        -2.382404
 H         2.146540         2.947149        -1.916387
 H         2.476028         1.892389         0.183614
