19
Iteration:  4623
 C         0.219869        -0.086261         0.397350
 C         1.120042         0.180101        -0.735933
 C         0.768025        -0.127170        -2.224034
 C         1.618008         0.944358        -2.969535
 C         1.352091         1.491699        -4.249532
 O         2.372018         0.575146        -4.229252
 C         2.516162         1.715716        -2.030214
 C         2.186763         1.237122        -0.701257
 O         2.480551        -0.107734        -0.358317
 H         0.505093        -1.003281         0.980067
 H         0.190038         0.789351         1.142205
 H        -0.794990        -0.317575         0.116471
 H         0.900678        -1.274844        -2.482263
 H        -0.372191        -0.128224        -2.446154
 H         0.492893         1.419439        -4.939016
 H         1.845046         2.512861        -4.339921
 H         3.598342         1.787021        -2.210549
 H         2.195154         2.780373        -2.091031
 H         2.279314         2.012916         0.209800
