19
Iteration:  4344
 C         0.362515        -0.265370         0.479317
 C         1.120689         0.192621        -0.752293
 C         0.510657         0.423524        -2.149120
 C         1.617966         1.070331        -2.957083
 C         1.676102         1.229052        -4.415631
 O         2.463699         0.217508        -3.836132
 C         2.152733         2.001172        -1.930543
 C         2.159646         1.255470        -0.696716
 O         2.560016        -0.197568        -0.874043
 H        -0.175896        -1.261850         0.309613
 H         1.145208        -0.472686         1.250076
 H        -0.382436         0.391660         0.853925
 H         0.044142        -0.490697        -2.605418
 H        -0.450663         1.071769        -1.993841
 H         0.720816         0.931127        -4.958155
 H         2.243332         2.187608        -4.612625
 H         3.216746         2.397684        -2.033991
 H         1.435784         2.736764        -1.605202
 H         2.478345         1.620990         0.195994
