19
Iteration:  4156
 C         0.167969        -0.031088         0.346120
 C         1.221498         0.126163        -0.769376
 C         0.771725        -0.040850        -2.255445
 C         1.636081         0.948734        -2.992546
 C         1.278510         1.447964        -4.291400
 O         2.363941         0.586830        -4.247568
 C         2.583967         1.718186        -1.997521
 C         2.212624         1.181148        -0.602037
 O         2.486142        -0.133556        -0.316420
 H         0.080485        -1.039427         0.782839
 H         0.303924         0.797671         1.136589
 H        -0.836539         0.221943        -0.078973
 H         0.827976        -1.016736        -2.629721
 H        -0.341890         0.339231        -2.090883
 H         0.303949         0.964650        -4.525527
 H         1.421625         2.512881        -4.542480
 H         3.698966         1.431454        -2.083444
 H         2.255832         2.772864        -2.082396
 H         2.075196         1.881188         0.263765
