19
Iteration:  2111
 C         0.013804         0.072588         0.275042
 C         1.151694         0.236922        -0.732998
 C         1.018672        -0.156995        -2.187722
 C         1.732419         0.953953        -3.002174
 C         1.187040         1.433687        -4.265852
 O         2.309148         0.525118        -4.208272
 C         2.487937         1.770015        -1.973844
 C         2.238831         1.237407        -0.596941
 O         2.522750        -0.189090        -0.368233
 H        -0.587021         1.052299         0.579423
 H        -0.650444        -0.671418        -0.104284
 H         0.484939        -0.270662         1.201500
 H         1.456237        -1.142402        -2.341515
 H         0.055050        -0.304330        -2.772281
 H         0.256307         0.915831        -4.452683
 H         1.365847         2.385819        -4.739098
 H         3.503641         1.676810        -2.431275
 H         2.284640         2.860715        -1.839731
 H         2.409171         1.872867         0.322353
