19
Iteration:  4919
 C         0.163651        -0.210816         0.473059
 C         1.094526         0.199348        -0.740302
 C         0.702343         0.216556        -2.207069
 C         1.726338         1.055948        -2.930768
 C         1.408355         1.290214        -4.322101
 O         2.352572         0.413210        -4.006913
 C         2.454813         1.979742        -1.918434
 C         2.262459         1.186585        -0.645508
 O         2.518038        -0.198975        -0.751535
 H         0.547659        -0.539132         1.533171
 H        -0.525907         0.594670         0.659378
 H        -0.582003        -0.888524         0.087004
 H         0.842208        -0.805033        -2.595083
 H        -0.280827         0.520397        -2.253326
 H         0.466061         0.819157        -4.647832
 H         1.747678         2.091898        -4.958640
 H         3.509458         1.936574        -2.242798
 H         2.093704         3.074581        -1.941868
 H         2.359324         1.478458         0.366270
