19
Iteration:  4385charge 0 multiplicity 1
 C         0.338332        -0.434347         0.334638
 C         1.044526         0.275614        -0.723783
 C         0.523184         0.399656        -2.122842
 C         1.514384         1.187714        -2.908440
 C         1.551336         1.194916        -4.402920
 O         2.419375         0.262038        -3.743766
 C         2.438997         1.973668        -1.973279
 C         2.189133         1.308474        -0.671815
 O         2.496685        -0.109678        -0.833135
 H         0.701491        -1.506087         0.258677
 H         0.738332        -0.163306         1.408548
 H        -0.701129        -0.466470         0.407780
 H         0.504625        -0.558022        -2.505781
 H        -0.553457         0.647586        -2.124073
 H         0.802140         0.720838        -4.976374
 H         2.012921         1.841541        -5.054548
 H         3.482817         1.688761        -2.290817
 H         2.373303         3.037852        -2.089831
 H         2.628139         1.780898         0.203866
