19
Iteration:  3765charge 0 multiplicity 1
 C         0.240688        -0.128262         0.391475
 C         1.172714         0.222998        -0.749542
 C         0.540418         0.187905        -2.141779
 C         1.578788         1.001868        -2.916800
 C         1.563825         1.393090        -4.341582
 O         2.395405         0.311815        -3.957740
 C         2.330092         1.856517        -1.963445
 C         2.291789         1.220670        -0.614995
 O         2.528749        -0.207600        -0.727220
 H        -0.051152        -1.264622         0.469518
 H         0.731580         0.196119         1.375322
 H        -0.752562         0.365757         0.333009
 H         0.413107        -0.925413        -2.524744
 H        -0.408718         0.670956        -2.500400
 H         0.674031         1.305532        -5.024866
 H         2.169485         2.296123        -4.618789
 H         3.269763         2.229435        -2.449924
 H         1.761698         2.866707        -1.914836
 H         2.642319         1.845459         0.238198
