19
Iteration:  2361
 C         0.271421        -0.393323         0.433974
 C         1.099022         0.271791        -0.726050
 C         0.533086         0.357624        -2.173555
 C         1.626179         1.095633        -2.931907
 C         1.613184         1.203987        -4.403695
 O         2.344262         0.188881        -3.730683
 C         2.351949         2.071126        -1.988103
 C         2.243269         1.323730        -0.688115
 O         2.539543        -0.139682        -0.852047
 H        -0.690566         0.133636         0.525962
 H        -0.001544        -1.350756         0.217836
 H         0.822458        -0.410758         1.422926
 H         0.436783        -0.570377        -2.688374
 H        -0.440068         0.860342        -2.038035
 H         0.796692         0.894752        -5.044327
 H         2.273836         1.944116        -4.882751
 H         3.385421         2.276843        -2.284074
 H         1.763924         2.997135        -2.134067
 H         2.507209         1.589771         0.342244
