19
Iteration:  2112charge 0 multiplicity 1
 C         0.028549         0.076722         0.268752
 C         1.152111         0.236686        -0.727789
 C         1.016646        -0.161665        -2.188766
 C         1.737473         0.959620        -2.997085
 C         1.184446         1.426795        -4.263826
 O         2.310134         0.525933        -4.207938
 C         2.483179         1.771902        -1.977442
 C         2.238499         1.239676        -0.601348
 O         2.516128        -0.190182        -0.363394
 H        -0.558080         1.054487         0.564408
 H        -0.682734        -0.709244        -0.087181
 H         0.483168        -0.241419         1.147305
 H         1.436459        -1.176676        -2.365921
 H         0.042877        -0.304124        -2.773764
 H         0.235876         0.926435        -4.477170
 H         1.372765         2.409115        -4.729110
 H         3.529562         1.684410        -2.436072
 H         2.288769         2.864248        -1.789522
 H         2.394016         1.846961         0.323225
