19
Iteration:  3763
 C         0.235045        -0.136690         0.387020
 C         1.151512         0.194776        -0.739076
 C         0.554773         0.203299        -2.138310
 C         1.591883         0.988858        -2.915369
 C         1.563360         1.400473        -4.337752
 O         2.386294         0.310618        -3.972751
 C         2.330086         1.870450        -1.955209
 C         2.288772         1.220625        -0.628580
 O         2.538489        -0.193963        -0.728766
 H        -0.002526        -1.239712         0.528787
 H         0.627705         0.247661         1.293455
 H        -0.782020         0.431008         0.346393
 H         0.445727        -0.906879        -2.487282
 H        -0.393473         0.641348        -2.444787
 H         0.656491         1.295134        -4.971507
 H         2.182994         2.258136        -4.669460
 H         3.286791         2.190672        -2.422390
 H         1.786709         2.825692        -1.946282
 H         2.665551         1.800374         0.306450
