19
Iteration:  1596charge 0 multiplicity 1
 C        -0.022372         0.155812         0.224429
 C         1.175455         0.250390        -0.727428
 C         1.008679        -0.181182        -2.271003
 C         1.762619         0.892622        -3.019503
 C         1.047743         1.589922        -4.185332
 O         2.131739         0.663278        -4.279170
 C         2.829024         1.515598        -2.069597
 C         2.326728         1.187737        -0.615275
 O         2.473058        -0.208306        -0.157031
 H         0.164821         0.290885         1.355698
 H        -0.832333         0.769905        -0.088595
 H        -0.370613        -0.989675         0.145605
 H         1.401819        -1.221575        -2.318666
 H        -0.058299        -0.310569        -2.450168
 H         0.092872         1.234499        -4.632310
 H         1.397830         2.583193        -4.427867
 H         3.842774         1.067569        -2.178487
 H         2.726979         2.592749        -2.142968
 H         2.272622         2.099174         0.068656
