19
Iteration:  3686charge 0 multiplicity 1
 C         0.090245        -0.260168         0.385043
 C         1.092168         0.203088        -0.664667
 C         0.684105         0.098985        -2.094686
 C         1.712049         0.980266        -2.978762
 C         1.403767         1.483848        -4.362077
 O         2.341554         0.421900        -4.166595
 C         2.581582         1.729150        -2.084774
 C         2.269771         1.323096        -0.619648
 O         2.476678        -0.079320        -0.461595
 H         0.101621        -1.347562         0.495817
 H         0.257307         0.121635         1.348721
 H        -0.956170         0.106746         0.066344
 H         0.796219        -1.001321        -2.492539
 H        -0.374285         0.436452        -2.255758
 H         0.490761         1.101103        -4.831883
 H         1.697130         2.513196        -4.633232
 H         3.654850         1.422203        -2.159956
 H         2.480495         2.804616        -2.326493
 H         2.608184         1.987116         0.258217
