19
Iteration:   412charge 0 multiplicity 1
 C         0.009581         0.208787         0.223928
 C         1.118125         0.196301        -0.739822
 C         0.912722        -0.231918        -2.279004
 C         1.772096         0.813977        -3.027543
 C         1.196904         1.778255        -3.919566
 O         2.153682         0.714629        -4.378805
 C         2.790560         1.334225        -2.058543
 C         2.313413         1.135190        -0.681441
 O         2.411146        -0.204901        -0.225333
 H        -0.727800        -0.515301         0.067137
 H         0.383488         0.230221         1.306200
 H        -0.441893         1.300122         0.135369
 H         1.209552        -1.269588        -2.531775
 H        -0.140061         0.012685        -2.518859
 H         0.084229         1.543465        -4.136197
 H         1.568532         2.814885        -4.139570
 H         3.796219         0.995956        -2.085074
 H         3.132796         2.401065        -2.389277
 H         2.580347         1.831688         0.123310
