19
Iteration:  2077
 C         0.033123        -0.065134         0.278266
 C         1.179085         0.176470        -0.713075
 C         0.893904        -0.155863        -2.137357
 C         1.715248         0.884140        -2.970354
 C         1.264174         1.512708        -4.270144
 O         2.293287         0.497519        -4.247616
 C         2.606986         1.751180        -2.007736
 C         2.171848         1.309282        -0.651357
 O         2.525129        -0.058455        -0.334133
 H        -0.652678         0.858232         0.474604
 H        -0.570502        -0.779393        -0.124109
 H         0.422491        -0.603218         1.241369
 H         1.121234        -1.194067        -2.263444
 H        -0.178870         0.202376        -2.315833
 H         0.301915         1.123612        -4.575368
 H         1.483257         2.469550        -4.668309
 H         3.571728         1.321863        -2.301529
 H         2.615054         2.829880        -2.235093
 H         2.273979         2.117362         0.121620
