19
Iteration:  1223
 C         0.241077         0.008473         0.484072
 C         1.087676         0.220683        -0.729635
 C         0.620670         0.082195        -2.207264
 C         1.590931         0.953510        -2.913866
 C         1.506797         1.469149        -4.242622
 O         2.376374         0.280095        -4.097315
 C         2.458969         1.860668        -1.973152
 C         2.229195         1.230005        -0.640330
 O         2.506367        -0.211686        -0.746692
 H         0.688934        -0.097090         1.465668
 H        -0.601765         0.745359         0.433556
 H        -0.194152        -1.045910         0.371734
 H         0.777190        -0.987324        -2.372805
 H        -0.418395         0.484006        -2.298326
 H         0.597404         1.369266        -4.819398
 H         2.069290         2.398341        -4.378007
 H         3.497780         1.991507        -2.222255
 H         1.913935         2.821221        -1.950490
 H         2.574138         1.642148         0.320527
