19
Iteration:  1472
 C        -0.043416         0.137007         0.125387
 C         1.241536         0.160097        -0.728047
 C         1.094215        -0.222246        -2.181219
 C         1.752011         0.871371        -3.040208
 C         1.044883         1.671799        -4.082297
 O         2.116714         0.659382        -4.337410
 C         2.771883         1.410188        -2.085455
 C         2.283132         1.283547        -0.683812
 O         2.482430        -0.116806        -0.056148
 H         0.085248         0.284921         1.171454
 H        -0.836308         0.891474        -0.175338
 H        -0.560166        -0.988030        -0.084673
 H         1.412903        -1.284389        -2.395976
 H         0.028909        -0.365952        -2.487075
 H         0.075974         1.365115        -4.391023
 H         1.383278         2.715953        -4.255325
 H         3.622752         0.748363        -2.442454
 H         2.936996         2.549793        -2.239014
 H         2.383571         1.989653         0.095734
