19
Iteration:  4020charge 0 multiplicity 1
 C         0.092884        -0.145352         0.432078
 C         1.140006         0.255920        -0.676411
 C         0.843585        -0.027146        -2.255584
 C         1.699940         0.985029        -2.984446
 C         1.305675         1.470877        -4.249163
 O         2.322327         0.418365        -4.240772
 C         2.543361         1.782485        -2.034322
 C         2.206695         1.275824        -0.612162
 O         2.497461        -0.137975        -0.454099
 H        -0.507733        -1.015044         0.145540
 H         0.673621        -0.219877         1.352597
 H        -0.632271         0.681031         0.600382
 H         1.014588        -1.107024        -2.347108
 H        -0.200401         0.218610        -2.462468
 H         0.395682         1.181744        -4.723198
 H         1.775364         2.394229        -4.474964
 H         3.590924         1.641747        -2.150928
 H         2.473016         2.892919        -2.106879
 H         2.167002         1.993831         0.223304
