19
Iteration:   894
 C        -0.044525         0.372659         0.024430
 C         1.218176         0.137681        -0.748215
 C         1.161632        -0.354469        -2.209271
 C         1.760316         0.875580        -3.001652
 C         0.989637         1.716359        -3.946327
 O         2.106858         0.646997        -4.358966
 C         2.766598         1.455107        -2.050583
 C         2.279509         1.131267        -0.673833
 O         2.458332        -0.200314        -0.090192
 H         0.071398         0.646155         0.991531
 H        -0.625794         1.196789        -0.465884
 H        -0.643859        -0.581449         0.062592
 H         1.926566        -1.147117        -2.338226
 H         0.176126        -0.786701        -2.471759
 H        -0.004560         1.360154        -4.349351
 H         1.283538         2.771071        -4.190651
 H         3.821480         1.128080        -2.236819
 H         2.925162         2.587884        -2.189308
 H         2.295808         1.987032         0.030237
