19
Iteration:   790charge 0 multiplicity 1
 C        -0.091996         0.177449         0.099520
 C         1.180175         0.178117        -0.774675
 C         1.171070        -0.422669        -2.206707
 C         1.796510         0.791638        -3.019577
 C         1.108501         1.786969        -3.968224
 O         1.993382         0.720229        -4.478148
 C         2.906768         1.347521        -2.024147
 C         2.242719         1.309941        -0.700399
 O         2.402749        -0.076312        -0.041364
 H         0.016242         0.910719         1.039256
 H        -1.031387         0.192025        -0.374831
 H        -0.139312        -0.805071         0.544435
 H         1.854660        -1.302563        -2.216692
 H         0.131947        -0.611167        -2.488332
 H         0.044821         1.922385        -4.123124
 H         1.641724         2.692927        -3.945254
 H         3.678414         0.548387        -2.248838
 H         3.346876         2.277695        -2.327979
 H         2.191874         2.174530        -0.033504
