19
Iteration:  4989charge 0 multiplicity 1
 C         0.241009        -0.105389         0.470524
 C         1.084684         0.213043        -0.696548
 C         0.772100         0.026258        -2.182401
 C         1.689716         1.033745        -3.008331
 C         1.436598         1.557469        -4.400100
 O         2.269421         0.441091        -4.141895
 C         2.418934         1.766375        -1.978326
 C         2.164205         1.229832        -0.590644
 O         2.554977        -0.270226        -0.526024
 H         0.749357         0.188065         1.340809
 H        -0.806650         0.339357         0.372435
 H        -0.036471        -1.227730         0.485345
 H         0.962849        -0.996397        -2.501739
 H        -0.331674         0.277652        -2.400482
 H         0.574314         1.376198        -5.114626
 H         1.957564         2.525575        -4.745084
 H         3.572367         1.724168        -2.105263
 H         2.109020         2.793300        -1.980517
 H         2.222648         1.926534         0.346881
