19
Iteration:  1649charge 0 multiplicity 1
 C         0.066106         0.096528         0.347728
 C         1.145888         0.182140        -0.764101
 C         0.858939        -0.223206        -2.254600
 C         1.713035         0.863772        -3.010422
 C         1.231758         1.684738        -4.080727
 O         2.247472         0.492238        -4.263132
 C         2.722163         1.655561        -2.068861
 C         2.190267         1.220561        -0.644607
 O         2.479935        -0.114521        -0.358343
 H         0.577089        -0.272749         1.130697
 H        -0.488746         0.961498         0.574665
 H        -0.839374        -0.686127         0.316311
 H         1.322513        -1.247620        -2.306050
 H        -0.203390        -0.206719        -2.520815
 H         0.347170         1.373634        -4.642915
 H         1.524986         2.713764        -4.161881
 H         3.693960         1.114366        -2.267395
 H         2.779804         2.790061        -2.227706
 H         2.358096         1.977820         0.135264
