19
Iteration:   203
 C         0.004185         0.234629         0.294613
 C         1.113354         0.138251        -0.777592
 C         0.780371        -0.121101        -2.286741
 C         1.736526         0.921658        -2.991721
 C         1.247216         1.690263        -4.142142
 O         2.178228         0.643059        -4.327216
 C         2.815061         1.522944        -1.929224
 C         2.337864         1.055672        -0.618455
 O         2.456384        -0.295711        -0.318810
 H        -0.570592        -0.656242         0.164943
 H         0.411839         0.034945         1.283896
 H        -0.532408         1.253234         0.404465
 H         0.930059        -1.206176        -2.530475
 H        -0.217871         0.221252        -2.542454
 H         0.248778         1.566417        -4.666818
 H         1.737564         2.727032        -4.318182
 H         3.881434         1.259076        -2.050031
 H         2.788570         2.647333        -1.895086
 H         2.599611         1.603292         0.279724
