19
Iteration:  1762
 C         0.275033        -0.091547         0.593271
 C         1.102658         0.199936        -0.690826
 C         0.561183         0.220299        -2.105958
 C         1.611721         1.071929        -3.064887
 C         1.609657         1.519409        -4.467724
 O         2.368318         0.328469        -3.968409
 C         2.387515         1.893406        -2.021663
 C         2.223828         1.151924        -0.661530
 O         2.447122        -0.354824        -0.715202
 H         0.665149         0.484644         1.524170
 H        -0.734107        -0.057696         0.296461
 H         0.380896        -1.094724         0.817153
 H         0.442294        -0.792609        -2.345154
 H        -0.371535         0.733016        -2.323907
 H         0.819750         1.251736        -5.166733
 H         2.270092         2.360716        -4.741059
 H         3.422251         1.857044        -2.324663
 H         2.120369         2.835865        -1.694443
 H         2.525147         1.571500         0.304095
