19
Iteration:  3860charge 0 multiplicity 1
 C         0.250952        -0.438344         0.319609
 C         1.164969         0.261994        -0.668697
 C         0.494223         0.368199        -2.110478
 C         1.589057         1.071213        -2.958168
 C         1.565275         1.261983        -4.472727
 O         2.363524         0.216860        -3.753062
 C         2.346380         2.094826        -2.035106
 C         2.293558         1.253359        -0.673903
 O         2.538739        -0.153019        -0.727938
 H        -0.515854        -1.104429         0.008731
 H         0.801874        -0.774655         1.076420
 H        -0.389048         0.393484         0.799467
 H         0.225628        -0.575541        -2.563305
 H        -0.469345         0.765267        -2.017720
 H         0.790485         0.964127        -5.174563
 H         2.260311         2.035814        -4.768931
 H         3.360985         2.187735        -2.446533
 H         2.103736         3.107106        -1.837459
 H         2.793920         1.816633         0.200419
