19
Iteration:  4269
 C         0.196801        -0.246931         0.480832
 C         1.088600         0.264796        -0.691675
 C         0.722792         0.188550        -2.162268
 C         1.696553         1.026190        -2.991062
 C         1.378142         1.320380        -4.398290
 O         2.450877         0.413904        -4.091355
 C         2.449160         1.838073        -1.925401
 C         2.167908         1.291478        -0.595324
 O         2.508379        -0.166918        -0.666646
 H        -0.479276        -1.062082         0.091262
 H         0.682207        -0.594128         1.372121
 H        -0.471986         0.592682         0.702775
 H         0.504615        -0.871178        -2.458290
 H        -0.210610         0.689106        -2.327272
 H         0.463389         0.800146        -4.822602
 H         1.667054         2.214305        -5.030254
 H         3.555757         1.964903        -2.030353
 H         1.900693         2.809683        -1.894369
 H         2.499282         1.637315         0.301627
