19
Iteration:  2691charge 0 multiplicity 1
 C         0.018381         0.018007         0.287488
 C         1.159598         0.173315        -0.637636
 C         0.904668        -0.034551        -2.179552
 C         1.687380         0.975543        -2.910603
 C         1.270794         1.506046        -4.345340
 O         2.244899         0.540587        -4.248553
 C         2.596511         1.685141        -2.050851
 C         2.269366         1.190851        -0.668296
 O         2.543835        -0.182922        -0.307207
 H         0.091238        -1.163454         0.508066
 H         0.175939         0.362124         1.325735
 H        -0.922671         0.325889        -0.070092
 H         0.906770        -1.082502        -2.461772
 H        -0.166393         0.135209        -2.380207
 H         0.270526         1.141013        -4.631133
 H         1.499915         2.557188        -4.620018
 H         3.639967         1.402867        -2.452861
 H         2.453441         2.788017        -1.994262
 H         2.405617         1.961644         0.111552
