19
Iteration:  3245charge 0 multiplicity 1
 C         0.248834        -0.076954         0.482398
 C         1.104340         0.242231        -0.724132
 C         0.636942         0.081583        -2.187781
 C         1.657923         0.965459        -2.993077
 C         1.423734         1.433847        -4.351743
 O         2.442569         0.417789        -4.069174
 C         2.375595         1.844432        -2.012994
 C         2.176548         1.225140        -0.656617
 O         2.538348        -0.260533        -0.560616
 H        -0.147813        -1.100462         0.447291
 H         0.831527         0.204502         1.417756
 H        -0.677695         0.510062         0.539685
 H         0.680062        -1.004119        -2.570662
 H        -0.437168         0.421230        -2.427792
 H         0.588867         1.064707        -4.949130
 H         1.756502         2.458838        -4.632106
 H         3.398694         1.944232        -2.389454
 H         2.189584         2.934731        -1.955236
 H         2.490853         1.775716         0.304734
