19
Iteration:  4935charge 0 multiplicity 1
 C         0.087109        -0.112984         0.342889
 C         1.130403         0.166059        -0.709144
 C         0.701125         0.136793        -2.149760
 C         1.660851         1.071725        -2.890244
 C         1.242929         1.318226        -4.352192
 O         2.484323         0.400287        -4.037858
 C         2.480341         1.924014        -1.898785
 C         2.276769         1.239322        -0.600175
 O         2.581195        -0.232423        -0.748265
 H         0.686135        -0.421974         1.136405
 H        -0.436714         0.851343         0.598419
 H        -0.594844        -0.950132         0.005406
 H         0.629571        -0.913062        -2.497187
 H        -0.392305         0.540187        -2.366231
 H         0.332745         0.768287        -4.687003
 H         1.466260         2.338909        -4.746518
 H         3.573645         2.035557        -2.101456
 H         1.973099         2.833958        -1.751086
 H         2.621868         1.631249         0.453104
