19
Iteration:  1694
 C         0.009757        -0.121533         0.323897
 C         1.146297         0.243887        -0.650330
 C         0.806631         0.121431        -2.207142
 C         1.699924         1.020319        -3.019682
 C         1.217629         1.455034        -4.310097
 O         2.236622         0.432876        -4.287001
 C         2.733736         1.757536        -1.931862
 C         2.347749         1.162733        -0.615693
 O         2.519544        -0.171328        -0.328952
 H         0.243879        -0.003700         1.325529
 H        -0.719269         0.504960        -0.064428
 H        -0.503772        -1.177904         0.192908
 H         0.788796        -0.895039        -2.607594
 H        -0.216525         0.497914        -2.243527
 H         0.171790         1.328475        -4.546388
 H         1.690814         2.342336        -4.739785
 H         3.632382         1.243944        -2.347413
 H         2.677253         2.826437        -2.098190
 H         2.450281         1.796101         0.300663
