19
Iteration:  1027charge 0 multiplicity 1
 C         0.121104        -0.021116         0.362605
 C         1.135412         0.242859        -0.666161
 C         0.704627         0.192761        -2.221408
 C         1.623130         1.003233        -2.959208
 C         1.373406         1.429783        -4.350522
 O         2.350302         0.427417        -4.104129
 C         2.549101         1.820170        -1.996294
 C         2.250908         1.143652        -0.599888
 O         2.529602        -0.319303        -0.513424
 H         0.736781        -0.237264         1.238955
 H        -0.701835         0.754725         0.536462
 H        -0.366974        -0.943419         0.110261
 H         0.776283        -0.842052        -2.569671
 H        -0.301112         0.625861        -2.300166
 H         0.489491         0.980303        -4.924640
 H         1.692446         2.442432        -4.719886
 H         3.566263         1.531134        -2.270040
 H         2.195714         2.897887        -1.958019
 H         2.595727         1.640632         0.291854
