19
Iteration:  4545charge 0 multiplicity 1
 C         0.026207        -0.147201         0.181494
 C         1.233087         0.257727        -0.734332
 C         0.895199        -0.068757        -2.143167
 C         1.644417         0.995498        -2.950879
 C         1.269927         1.458946        -4.277362
 O         2.223365         0.423487        -4.136520
 C         2.545953         1.831286        -1.992245
 C         2.293803         1.249849        -0.649705
 O         2.583088        -0.105450        -0.349473
 H        -0.452232        -0.867740        -0.376573
 H         0.347674        -0.683200         1.091759
 H        -0.654995         0.697756         0.395279
 H         1.247816        -1.134495        -2.414083
 H        -0.239518         0.023625        -2.247634
 H         0.362958         1.024790        -4.720677
 H         1.558982         2.408724        -4.707895
 H         3.537527         2.037675        -2.274460
 H         2.054809         2.832049        -2.015585
 H         2.287504         1.967135         0.229163
