19
Iteration:  3859charge 0 multiplicity 1
 C         0.257228        -0.427555         0.318574
 C         1.160782         0.246818        -0.675880
 C         0.493097         0.372249        -2.114825
 C         1.602827         1.066184        -2.955601
 C         1.557430         1.261966        -4.460638
 O         2.366926         0.214192        -3.751593
 C         2.339833         2.092068        -2.036036
 C         2.298051         1.259331        -0.676536
 O         2.533698        -0.153718        -0.729597
 H        -0.485098        -1.083194        -0.028131
 H         0.806270        -0.797184         1.080813
 H        -0.378859         0.392158         0.823986
 H         0.242617        -0.536381        -2.554773
 H        -0.504909         0.789103        -2.053921
 H         0.793630         0.960471        -5.153430
 H         2.238959         2.031184        -4.762824
 H         3.346913         2.197225        -2.446450
 H         2.098876         3.115031        -1.813386
 H         2.772731         1.826420         0.205199
