19
Iteration:  1226
 C         0.224651         0.019494         0.466647
 C         1.069570         0.208248        -0.738756
 C         0.636811         0.073282        -2.170354
 C         1.589970         0.950970        -2.910619
 C         1.488933         1.466149        -4.230015
 O         2.398658         0.283616        -4.126702
 C         2.449563         1.844666        -1.953267
 C         2.223408         1.231600        -0.655664
 O         2.503825        -0.207204        -0.751112
 H         0.839739        -0.064978         1.524117
 H        -0.603384         0.741099         0.532797
 H        -0.225126        -0.922050         0.445978
 H         0.773878        -0.993040        -2.371761
 H        -0.379977         0.415421        -2.387788
 H         0.572754         1.416298        -4.861062
 H         2.069577         2.444726        -4.303645
 H         3.499140         2.023115        -2.187923
 H         2.041611         2.850957        -1.953626
 H         2.627280         1.643703         0.283105
