19
Iteration:  4636
 C         0.100487        -0.098305         0.406223
 C         1.142032         0.165284        -0.723757
 C         0.793086        -0.116717        -2.170031
 C         1.644287         0.930557        -2.985023
 C         1.355616         1.593725        -4.363329
 O         2.313756         0.485482        -4.138244
 C         2.512593         1.826618        -2.010647
 C         2.180861         1.214647        -0.637866
 O         2.564766        -0.145652        -0.451355
 H         0.469928        -0.919481         1.133680
 H        -0.025080         0.827854         0.984248
 H        -0.822812        -0.263185        -0.072294
 H         1.431023        -1.023364        -2.426209
 H        -0.317665        -0.100738        -2.389485
 H         0.452949         1.139627        -4.865177
 H         1.718232         2.652371        -4.628180
 H         3.602628         1.590339        -2.355743
 H         2.265665         2.913428        -2.035206
 H         2.272149         1.876874         0.283891
