19
Iteration:  1365
 C         0.029176         0.044780         0.455698
 C         1.145986         0.178847        -0.704319
 C         0.882709        -0.129958        -2.244755
 C         1.693882         0.928892        -3.030304
 C         1.247915         1.641652        -4.287310
 O         2.244457         0.636297        -4.423419
 C         2.738546         1.451773        -2.037015
 C         2.175034         1.240724        -0.702368
 O         2.493093        -0.125786        -0.144202
 H         0.357356         0.454768         1.431540
 H        -1.006015         0.272915         0.185961
 H         0.145896        -1.109649         0.650915
 H         1.271554        -1.132343        -2.531519
 H        -0.207767         0.038395        -2.298472
 H         0.281220         1.327127        -4.582685
 H         1.520745         2.681520        -4.543888
 H         3.623168         0.781288        -2.076976
 H         3.040110         2.542640        -2.225625
 H         2.062482         2.023620         0.057217
