19
Iteration:  4341
 C         0.362495        -0.252068         0.469002
 C         1.115800         0.178843        -0.717217
 C         0.512542         0.386198        -2.153021
 C         1.605935         1.083521        -2.972239
 C         1.692688         1.226430        -4.434349
 O         2.452063         0.221911        -3.841326
 C         2.157360         2.008340        -1.919714
 C         2.159155         1.242505        -0.694045
 O         2.579950        -0.210289        -0.881374
 H        -0.241811        -1.159890         0.329207
 H         1.084306        -0.527733         1.358199
 H        -0.291162         0.527240         0.805351
 H         0.003584        -0.402520        -2.561859
 H        -0.381224         1.047236        -1.974331
 H         0.842505         1.039748        -5.030437
 H         2.102450         2.160912        -4.643108
 H         3.151160         2.485630        -1.998071
 H         1.440296         2.737626        -1.582647
 H         2.366024         1.729745         0.291117
