19
Iteration:  3063
 C         0.111228        -0.083894         0.374987
 C         1.214736         0.212688        -0.721336
 C         0.688635         0.185960        -2.298663
 C         1.740778         1.045009        -2.964498
 C         1.266109         1.344543        -4.299538
 O         2.337321         0.453180        -4.092257
 C         2.557887         1.839039        -1.952261
 C         2.278003         1.187272        -0.619910
 O         2.503339        -0.262215        -0.524536
 H         0.323330        -0.994110         1.082103
 H        -0.038055         0.880778         1.040242
 H        -0.784109        -0.438911        -0.032684
 H         0.756375        -0.809362        -2.595437
 H        -0.222822         0.692225        -2.424420
 H         0.348262         0.792576        -4.456898
 H         1.409344         2.129774        -5.034809
 H         3.714276         1.698495        -2.102615
 H         2.165853         2.917744        -1.703804
 H         2.445361         1.627843         0.251256
