19
Iteration:  3212charge 0 multiplicity 1
 C         0.102144         0.022426         0.301891
 C         1.183884         0.173239        -0.778669
 C         0.745093         0.027590        -2.200562
 C         1.683637         1.026548        -2.955041
 C         1.291062         1.413739        -4.355892
 O         2.304126         0.347427        -4.084224
 C         2.465975         1.937949        -1.893579
 C         2.218547         1.209007        -0.593978
 O         2.684896        -0.250721        -0.495898
 H        -0.554094        -0.791942        -0.000337
 H         0.306752        -0.310468         1.350436
 H        -0.432723         0.964165         0.270827
 H         0.933055        -1.070494        -2.577974
 H        -0.302524         0.355256        -2.538080
 H         0.314244         1.023158        -4.664229
 H         1.653934         2.313998        -4.896741
 H         3.501896         2.032219        -2.260986
 H         1.867523         2.860991        -1.751624
 H         2.465137         1.664499         0.445338
