19
Iteration:  4349
 C         0.365761        -0.305800         0.480955
 C         1.130426         0.218188        -0.798856
 C         0.480664         0.446751        -2.146417
 C         1.622064         1.045754        -2.940751
 C         1.642780         1.251178        -4.386430
 O         2.477286         0.213563        -3.818018
 C         2.182152         2.010357        -1.946038
 C         2.161667         1.225418        -0.691944
 O         2.520337        -0.171912        -0.861071
 H        -0.008522        -1.289726         0.282521
 H         1.210621        -0.382217         1.161508
 H        -0.508791         0.311906         0.910753
 H         0.193185        -0.532700        -2.623178
 H        -0.363005         1.081292        -2.066449
 H         0.755204         0.861201        -4.875772
 H         2.299103         2.083021        -4.705023
 H         3.173839         2.323548        -2.183457
 H         1.430922         2.877275        -1.787610
 H         2.683273         1.612345         0.281966
