19
Iteration:  2848
 C         0.265769        -0.146419         0.514822
 C         1.095232         0.251269        -0.679707
 C         0.618563         0.273084        -2.163230
 C         1.620714         1.049368        -2.968843
 C         1.521199         1.405989        -4.395485
 O         2.371493         0.390405        -3.979891
 C         2.469890         1.840251        -1.995559
 C         2.298230         1.128933        -0.697102
 O         2.377207        -0.274695        -0.709104
 H         0.429497         0.407562         1.438496
 H        -0.824402        -0.116488         0.316679
 H         0.595547        -1.198533         0.836471
 H         0.497271        -0.712368        -2.662572
 H        -0.348263         0.743317        -2.083174
 H         0.825974         0.990414        -5.126484
 H         2.011384         2.372292        -4.585316
 H         3.471349         1.847393        -2.340307
 H         1.870937         2.881253        -2.030281
 H         2.664318         1.620487         0.260185
