19
Iteration:   221
 C        -0.042649         0.174682         0.186012
 C         1.164831         0.211344        -0.730757
 C         0.934018        -0.077573        -2.177366
 C         1.783432         0.924230        -2.988740
 C         1.244789         1.779758        -4.001965
 O         2.111752         0.642996        -4.319770
 C         2.811703         1.422234        -2.072926
 C         2.294235         1.075925        -0.647850
 O         2.423583        -0.330019        -0.282323
 H        -0.645998        -0.825247         0.136693
 H         0.168567         0.546641         1.147938
 H        -0.679724         1.056328        -0.226960
 H         1.330557        -1.036134        -2.468564
 H        -0.164503        -0.131002        -2.377917
 H         0.211628         1.549820        -4.240437
 H         1.622736         2.756464        -4.161558
 H         3.802062         0.949238        -2.359471
 H         3.030917         2.428389        -2.375002
 H         2.320252         1.887549         0.147354
