19
Iteration:  1463
 C        -0.031737         0.153285         0.029663
 C         1.227945         0.186296        -0.713388
 C         1.079151        -0.204629        -2.151417
 C         1.742538         0.848862        -3.038703
 C         1.038519         1.683372        -4.075190
 O         2.073068         0.570313        -4.379180
 C         2.790991         1.476821        -2.040595
 C         2.305081         1.244828        -0.567302
 O         2.493774        -0.140940        -0.104607
 H         0.281215         0.182421         0.981535
 H        -0.720545         0.931484        -0.264744
 H        -0.562347        -0.878289        -0.127463
 H         1.635491        -1.119928        -2.462433
 H         0.013229        -0.297015        -2.387241
 H         0.022848         1.423954        -4.320344
 H         1.295824         2.696418        -4.380245
 H         3.835960         1.147743        -2.207569
 H         2.996939         2.590598        -2.104472
 H         2.149037         2.108025         0.086864
