19
Iteration:  4589
 C         0.124646        -0.181777         0.451088
 C         1.112346         0.155077        -0.690627
 C         0.786941        -0.069233        -2.180212
 C         1.754503         0.949907        -2.994773
 C         1.262133         1.448332        -4.305475
 O         2.347068         0.556416        -4.314178
 C         2.668134         1.726080        -1.997720
 C         2.050120         1.281803        -0.638102
 O         2.519707        -0.051202        -0.394792
 H         0.106201        -1.229275         0.564677
 H         0.546628         0.241793         1.412621
 H        -0.850889         0.285135         0.191850
 H         0.996955        -1.123898        -2.586624
 H        -0.219371         0.338417        -2.481426
 H         0.290434         1.127212        -4.678265
 H         1.563358         2.476028        -4.539254
 H         3.707939         1.510546        -2.056292
 H         2.522580         2.824681        -2.032748
 H         2.213816         2.068043         0.197283
