19
Iteration:  1745charge 0 multiplicity 1
 C         0.209913        -0.097888         0.519797
 C         1.056231         0.258404        -0.682785
 C         0.556125         0.151622        -2.183301
 C         1.629105         1.027483        -2.944179
 C         1.559278         1.494326        -4.352282
 O         2.327783         0.375181        -4.048735
 C         2.531193         1.772687        -1.963091
 C         2.266338         1.144388        -0.674345
 O         2.472263        -0.230317        -0.710328
 H         0.558837         0.562132         1.299831
 H        -0.961738        -0.028962         0.387212
 H         0.387293        -1.160543         0.967445
 H         0.805474        -0.806159        -2.781539
 H        -0.526442         0.455543        -2.150979
 H         0.645801         1.273413        -4.958950
 H         2.098469         2.421905        -4.573574
 H         3.594883         1.730543        -2.286038
 H         2.157896         2.835476        -2.226604
 H         2.588236         1.702327         0.208930
