19
Iteration:  2674
 C        -0.002360        -0.038085         0.312017
 C         1.157544         0.252258        -0.695645
 C         0.839147        -0.091952        -2.138363
 C         1.683518         0.921001        -3.067541
 C         1.174271         1.550733        -4.286835
 O         2.299166         0.493667        -4.264857
 C         2.620574         1.750038        -2.024573
 C         2.335077         1.228207        -0.567749
 O         2.552889        -0.218623        -0.329561
 H        -0.545542        -0.907184         0.266522
 H         0.187842         0.150055         1.400380
 H        -0.751727         0.784020         0.007384
 H         1.387146        -1.037980        -2.386056
 H        -0.265659        -0.137420        -2.263564
 H         0.292886         1.222810        -4.841610
 H         1.614628         2.484540        -4.606576
 H         3.642169         1.724492        -2.235102
 H         2.406051         2.832169        -2.060121
 H         2.560248         1.934644         0.237218
