19
Iteration:  4884charge 0 multiplicity 1
 C         0.381060        -0.267962         0.409086
 C         1.142480         0.246869        -0.753171
 C         0.445601         0.267326        -2.160744
 C         1.532654         0.993424        -2.918020
 C         1.646369         1.424638        -4.409336
 O         2.361453         0.333865        -3.968184
 C         2.368027         1.865785        -1.999402
 C         2.231249         1.178735        -0.636262
 O         2.504399        -0.164791        -0.614240
 H         1.016946        -0.405597         1.327484
 H        -0.524571         0.375574         0.545222
 H         0.170606        -1.305019         0.157211
 H         0.195751        -0.737932        -2.571551
 H        -0.468720         0.865762        -2.283464
 H         0.841503         1.281840        -5.122933
 H         2.156914         2.356849        -4.657456
 H         3.362918         1.863630        -2.408164
 H         2.000106         2.988739        -2.032973
 H         2.276519         1.820482         0.364682
