19
Iteration:  2728
 C         0.146569        -0.078470         0.468302
 C         1.049477         0.259645        -0.807559
 C         0.804303        -0.040998        -2.248344
 C         1.767545         0.926947        -2.978233
 C         1.317717         1.536104        -4.175640
 O         2.248731         0.465743        -4.234363
 C         2.646664         1.634655        -1.977792
 C         2.149496         1.265619        -0.622231
 O         2.500892        -0.095037        -0.488076
 H         0.571164        -0.935497         0.923654
 H         0.075635         0.806156         1.121638
 H        -0.868497        -0.453809         0.176021
 H         0.990805        -1.042436        -2.663613
 H        -0.188765         0.256179        -2.461953
 H         0.318019         1.259571        -4.530738
 H         1.729733         2.474237        -4.536750
 H         3.634831         1.247932        -2.025430
 H         2.703311         2.744744        -2.140690
 H         2.305973         1.993185         0.172810
