19
Iteration:  3496
 C         0.243839        -0.228595         0.378505
 C         1.094699         0.212432        -0.786233
 C         0.629806         0.202068        -2.171473
 C         1.689029         1.048381        -3.015537
 C         1.399688         1.412580        -4.352014
 O         2.361409         0.366800        -4.127078
 C         2.593790         1.752880        -1.951353
 C         2.155689         1.261247        -0.591145
 O         2.480586        -0.116123        -0.497726
 H         0.399716        -1.244197         0.536831
 H         0.535495         0.222462         1.408663
 H        -0.911122         0.004982         0.235851
 H         0.531133        -0.860581        -2.542498
 H        -0.425523         0.844298        -2.051314
 H         0.452018         0.932265        -4.644537
 H         1.712256         2.327754        -4.842079
 H         3.626002         1.450798        -2.200807
 H         2.458591         2.852757        -1.935777
 H         2.323841         1.848321         0.281455
