19
Iteration:  1157charge 0 multiplicity 1
 C         0.327020        -0.406920         0.289939
 C         1.049545         0.337782        -0.741142
 C         0.545980         0.552124        -2.104337
 C         1.674157         1.120657        -2.915753
 C         1.463365         1.183765        -4.370228
 O         2.373730         0.149352        -3.762396
 C         2.514417         1.905070        -1.979970
 C         2.219592         1.259633        -0.632539
 O         2.460214        -0.118230        -0.871033
 H         0.743245        -0.249840         1.304009
 H        -0.778168        -0.133503         0.410720
 H         0.353092        -1.565118         0.041022
 H        -0.071171        -0.255332        -2.517688
 H        -0.237759         1.321496        -1.872362
 H         0.584690         0.698258        -4.795067
 H         1.929085         2.036319        -4.838796
 H         3.539401         2.050683        -2.153063
 H         2.294458         2.951661        -1.954869
 H         2.621869         1.540308         0.339091
