19
Iteration:  1874
 C         0.319998        -0.327331         0.424616
 C         1.158671         0.196848        -0.760401
 C         0.449538         0.501014        -2.141396
 C         1.616260         1.097187        -2.939689
 C         1.634883         1.270619        -4.379224
 O         2.325960         0.147326        -3.904167
 C         2.424116         1.958993        -1.986013
 C         2.141600         1.258206        -0.648027
 O         2.553616        -0.157360        -0.766925
 H         0.772809        -1.301674         0.836925
 H         0.095848         0.193591         1.472500
 H        -0.583391        -0.645877         0.006668
 H        -0.117032        -0.422116        -2.403931
 H        -0.312779         1.252386        -2.035173
 H         0.713158         1.217476        -5.042396
 H         2.338427         2.017041        -4.811265
 H         3.488379         2.092144        -2.180160
 H         1.995022         2.941651        -1.895907
 H         2.447967         1.662801         0.328834
