19
Iteration:  2541
 C         0.085407        -0.060920         0.300550
 C         1.161306         0.204913        -0.764413
 C         0.825892        -0.024515        -2.154483
 C         1.747553         0.919973        -2.916985
 C         1.328817         1.372872        -4.267253
 O         2.262612         0.403780        -4.175605
 C         2.559013         1.795680        -1.998767
 C         2.137485         1.301625        -0.577880
 O         2.575804        -0.043010        -0.511124
 H        -0.358846         0.898607         0.622003
 H        -0.617193        -0.920631        -0.068411
 H         0.493476        -0.499092         1.169015
 H         0.989607        -1.155487        -2.395330
 H        -0.227445         0.229561        -2.460698
 H         0.302754         1.070094        -4.589789
 H         1.556482         2.312421        -4.833480
 H         3.638160         1.684430        -1.930007
 H         2.245891         2.858496        -1.898762
 H         2.272414         1.956589         0.303217
