19
Iteration:  2985
 C         0.335561        -0.209780         0.427517
 C         1.135209         0.251955        -0.711468
 C         0.512811         0.347258        -2.219775
 C         1.642508         1.082373        -2.931602
 C         1.615081         1.382655        -4.418350
 O         2.298281         0.221123        -3.890632
 C         2.360952         1.895309        -1.928138
 C         2.194296         1.181655        -0.598378
 O         2.511557        -0.248935        -0.785415
 H         0.882118        -0.075732         1.467285
 H        -0.604693         0.420520         0.431316
 H         0.155088        -1.244817         0.295453
 H         0.349956        -0.655886        -2.501019
 H        -0.368568         0.955516        -2.120043
 H         0.654220         1.269290        -4.954757
 H         2.289705         2.125389        -4.839564
 H         3.423037         2.160402        -2.355891
 H         1.950269         3.020635        -1.901725
 H         2.602307         1.601604         0.238637
