19
Iteration:   344charge 0 multiplicity 1
 C        -0.084165         0.381080        -0.183100
 C         1.229226         0.206213        -0.882697
 C         1.186101        -0.402938        -2.209103
 C         1.847367         0.836607        -2.957286
 C         0.982277         1.715025        -3.701969
 O         1.838628         0.871740        -4.455392
 C         3.052210         1.259084        -2.009210
 C         2.394573         1.075445        -0.667155
 O         2.337775        -0.207889        -0.020826
 H        -0.749115        -0.478828        -0.062315
 H         0.031680         0.838024         0.706605
 H        -0.538091         1.313460        -0.777480
 H         1.736469        -1.364305        -2.192927
 H         0.193987        -0.442540        -2.581626
 H        -0.078103         1.402514        -3.633429
 H         1.116919         2.838043        -3.785584
 H         3.911451         0.561620        -2.166787
 H         3.504236         2.243587        -2.082319
 H         2.592783         1.945006        -0.091843
