19
Iteration:  4648charge 0 multiplicity 1
 C         0.033675        -0.057947         0.350696
 C         1.165747         0.169826        -0.656612
 C         0.966825        -0.041527        -2.174850
 C         1.641618         1.069920        -3.015469
 C         1.306746         1.503577        -4.343537
 O         2.287760         0.420259        -4.109723
 C         2.456967         1.802564        -1.979070
 C         2.174157         1.249416        -0.572056
 O         2.604260        -0.192728        -0.543852
 H         0.347529        -0.966075         1.019405
 H        -0.177921         0.759943         0.999273
 H        -0.862991        -0.508654        -0.023573
 H         1.071540        -1.097543        -2.521103
 H        -0.143260        -0.024988        -2.418256
 H         0.330471         1.296062        -4.905048
 H         1.797156         2.469096        -4.749108
 H         3.632353         1.708732        -2.203210
 H         2.331131         2.909791        -2.038349
 H         2.306895         1.784797         0.370491
