19
Iteration:  1019charge 0 multiplicity 1
 C         0.118009        -0.025254         0.315623
 C         1.185192         0.177627        -0.724092
 C         0.654174         0.182530        -2.143833
 C         1.627063         1.023686        -2.996994
 C         1.353673         1.502916        -4.325301
 O         2.365559         0.401172        -4.172806
 C         2.514524         1.761603        -2.014088
 C         2.247238         1.135595        -0.569423
 O         2.549163        -0.258978        -0.418676
 H         0.636800        -0.111306         1.400468
 H        -0.643186         0.745528         0.385678
 H        -0.320523        -0.920485         0.066586
 H         0.684681        -0.801720        -2.624875
 H        -0.374956         0.511412        -2.260320
 H         0.483083         1.088201        -4.871354
 H         1.756487         2.467485        -4.710163
 H         3.538823         1.417651        -2.340960
 H         2.540963         2.895067        -2.063891
 H         2.516858         1.644697         0.364598
