19
Iteration:  4577charge 0 multiplicity 1
 C         0.111556        -0.184375         0.354417
 C         1.137994         0.172954        -0.720219
 C         0.885791        -0.053586        -2.202046
 C         1.673972         1.016777        -2.932781
 C         1.264913         1.465088        -4.291431
 O         2.306645         0.472138        -4.255185
 C         2.625725         1.765773        -1.959114
 C         2.168668         1.320019        -0.625758
 O         2.510666        -0.049043        -0.423193
 H        -0.222304        -1.166952         0.255518
 H         0.467440        -0.082558         1.408843
 H        -0.875630         0.427805         0.305276
 H         1.043301        -1.111664        -2.598220
 H        -0.258127        -0.025009        -2.285936
 H         0.355726         0.940943        -4.592237
 H         1.460889         2.433878        -4.724805
 H         3.557019         1.367671        -2.149360
 H         2.737569         2.846209        -2.196245
 H         2.088575         1.898521         0.334964
