19
Iteration:  2084
 C        -0.041308        -0.066899         0.291945
 C         1.158056         0.179878        -0.656992
 C         0.904436        -0.162918        -2.085040
 C         1.720931         0.922934        -3.000574
 C         1.242326         1.458266        -4.288248
 O         2.285371         0.512390        -4.254013
 C         2.646510         1.778198        -2.017277
 C         2.175080         1.305859        -0.654004
 O         2.557195        -0.073632        -0.379950
 H        -0.501945         0.824688         0.514621
 H        -0.794850        -0.769562        -0.232932
 H         0.376413        -0.408157         1.307021
 H         1.224928        -1.206122        -2.258715
 H        -0.053134        -0.038726        -2.522307
 H         0.305934         1.086926        -4.745660
 H         1.541960         2.518614        -4.477573
 H         3.627484         1.469332        -2.357681
 H         2.627811         2.865422        -1.949875
 H         2.344803         1.978450         0.172188
