19
Iteration:  3956
 C         0.178518        -0.139569         0.467064
 C         1.148060         0.247738        -0.731260
 C         0.669082         0.092974        -2.106641
 C         1.532895         1.040089        -2.979195
 C         1.418222         1.392912        -4.470458
 O         2.407714         0.480515        -3.976565
 C         2.477616         1.845905        -2.001355
 C         2.328607         1.169532        -0.743357
 O         2.491143        -0.246203        -0.533838
 H         0.169094        -1.197453         0.707062
 H         0.256452         0.415185         1.354430
 H        -0.849027        -0.019249        -0.032334
 H         0.647995        -0.796389        -2.563110
 H        -0.456418         0.380118        -2.175846
 H         0.625220         1.046898        -5.104594
 H         1.891384         2.277028        -4.850123
 H         3.511918         1.975475        -2.308404
 H         2.134816         2.934102        -1.908875
 H         2.506361         1.758891         0.216712
