19
Iteration:  3752charge 0 multiplicity 1
 C         0.178761        -0.140487         0.437073
 C         1.123172         0.181772        -0.710914
 C         0.629697         0.218767        -2.140846
 C         1.692765         0.971724        -2.960732
 C         1.532504         1.437972        -4.336896
 O         2.339682         0.277038        -4.013910
 C         2.376264         1.951899        -1.965242
 C         2.206565         1.175398        -0.657546
 O         2.566508        -0.169054        -0.729600
 H         0.075412        -1.236560         0.683579
 H         0.539542         0.334073         1.300148
 H        -0.859077         0.292671         0.025924
 H         0.602180        -0.867828        -2.598354
 H        -0.351307         0.625352        -1.904356
 H         0.611047         1.085812        -4.823168
 H         2.049504         2.328877        -4.737546
 H         3.473693         1.998538        -2.140474
 H         1.839893         2.905011        -1.915807
 H         2.498667         1.556731         0.403296
