19
Iteration:  2630
 C         0.083998         0.030676         0.405727
 C         1.166236         0.144629        -0.738255
 C         0.817990        -0.100386        -2.277314
 C         1.757803         0.916578        -2.997338
 C         1.199790         1.509476        -4.202164
 O         2.301910         0.477893        -4.189292
 C         2.703787         1.696796        -1.982725
 C         2.113502         1.271183        -0.694282
 O         2.522742        -0.109401        -0.404443
 H        -0.798732        -0.346246         0.032624
 H         0.520778        -0.719827         1.149618
 H        -0.076722         1.030187         0.902597
 H         1.243035        -1.121978        -2.421685
 H        -0.141309         0.105160        -2.750143
 H         0.319067         1.047988        -4.649566
 H         1.365390         2.574061        -4.353909
 H         3.698255         1.618711        -2.277473
 H         2.458018         2.752248        -2.109307
 H         1.954216         1.856805         0.195305
