19
Iteration:  2546
 C         0.115854        -0.068313         0.254751
 C         1.160993         0.186676        -0.726815
 C         0.808160         0.000775        -2.188802
 C         1.776357         0.925134        -2.927905
 C         1.281422         1.386092        -4.264808
 O         2.248207         0.366057        -4.184474
 C         2.573587         1.783234        -1.931674
 C         2.102728         1.348823        -0.580564
 O         2.603592        -0.043205        -0.493154
 H        -0.504845         0.799067         0.553376
 H        -0.599603        -0.782867         0.016440
 H         0.520364        -0.511446         1.287751
 H         0.999978        -1.018486        -2.336152
 H        -0.141743         0.161030        -2.723100
 H         0.316671         1.132844        -4.696108
 H         1.631621         2.332278        -4.665004
 H         3.656108         1.587408        -2.177569
 H         2.301202         2.841193        -2.020290
 H         2.217350         1.866761         0.374112
