19
Iteration:  1608charge 0 multiplicity 1
 C         0.034002         0.144230         0.260388
 C         1.131944         0.225758        -0.763372
 C         0.971676        -0.209605        -2.209591
 C         1.753613         0.858449        -2.996188
 C         1.091786         1.573402        -4.082263
 O         2.217516         0.630527        -4.399630
 C         2.795973         1.560661        -2.035717
 C         2.237429         1.213725        -0.636014
 O         2.430918        -0.179632        -0.212861
 H         0.629301         0.236389         1.273359
 H        -0.632249         1.006225         0.229458
 H        -0.563325        -0.793434         0.192772
 H         1.453425        -1.141551        -2.497887
 H        -0.045437        -0.188166        -2.590738
 H         0.078079         1.285822        -4.414526
 H         1.307889         2.644152        -4.269570
 H         3.838201         1.232527        -2.207262
 H         2.880072         2.590751        -2.278690
 H         2.327914         1.835785         0.297733
