19
Iteration:  2504
 C         0.191701        -0.053828         0.444730
 C         1.118612         0.269563        -0.685826
 C         0.744161         0.020569        -2.186410
 C         1.591452         0.954062        -3.025685
 C         1.411538         1.345813        -4.442966
 O         2.438420         0.534842        -4.091495
 C         2.381999         1.805335        -2.061733
 C         2.269928         1.188187        -0.630303
 O         2.482659        -0.211059        -0.425525
 H        -0.409230         0.915087         0.734812
 H        -0.613669        -0.687541         0.197305
 H         0.853475        -0.396294         1.294587
 H         0.960483        -0.997384        -2.484556
 H        -0.330542         0.127073        -2.122765
 H         0.612171         0.752779        -4.937500
 H         1.652453         2.364128        -4.760168
 H         3.467982         2.019953        -2.344082
 H         1.902687         2.815384        -2.066880
 H         2.508910         1.869704         0.203176
