19
Iteration:  1380charge 0 multiplicity 1
 C         0.079838         0.050129         0.356363
 C         1.142279         0.159629        -0.624809
 C         0.839120        -0.143734        -2.178659
 C         1.713727         0.896420        -3.106526
 C         1.151361         1.611790        -4.250950
 O         2.312346         0.738710        -4.349381
 C         2.756298         1.430493        -2.125235
 C         2.141705         1.168472        -0.665265
 O         2.501517        -0.122438        -0.129836
 H         0.338958         0.777833         1.313902
 H        -0.793878         0.573304        -0.095348
 H        -0.149510        -0.885447         0.682492
 H         1.205362        -1.159826        -2.361293
 H        -0.172567        -0.114792        -2.574254
 H         0.250797         1.231332        -4.826283
 H         1.382365         2.681222        -4.362743
 H         3.588772         0.739668        -2.271566
 H         2.979701         2.449713        -2.239851
 H         2.307006         2.095219        -0.069133
