19
Iteration:   622charge 0 multiplicity 1
 C         0.286679        -0.290920         0.348011
 C         1.145485         0.308047        -0.725107
 C         0.505350         0.589294        -2.195146
 C         1.599723         1.132708        -2.917409
 C         1.562588         1.329784        -4.439286
 O         2.235792         0.208099        -3.842065
 C         2.539582         1.867471        -1.885827
 C         2.326910         1.160163        -0.634967
 O         2.463845        -0.340620        -0.779701
 H        -0.698316        -0.255783        -0.097169
 H         0.631670        -1.296844         0.875091
 H         0.029251         0.348776         1.203054
 H         0.154058        -0.363401        -2.575170
 H        -0.334616         1.291137        -2.033189
 H         0.678838         1.018468        -5.066884
 H         2.239153         2.146783        -4.902714
 H         3.549527         1.836684        -2.205265
 H         2.152145         2.976714        -1.788779
 H         2.656460         1.568854         0.317690
