19
Iteration:  2991
 C         0.347399        -0.190915         0.458842
 C         1.107954         0.327985        -0.726989
 C         0.556329         0.261688        -2.174138
 C         1.604042         1.050588        -2.931107
 C         1.650255         1.395759        -4.379932
 O         2.285149         0.249220        -3.941191
 C         2.358142         1.904363        -1.917545
 C         2.230616         1.189094        -0.659455
 O         2.489344        -0.270840        -0.775591
 H         0.799894        -0.289380         1.365582
 H        -0.465514         0.494774         0.555565
 H        -0.074639        -1.287241         0.277675
 H         0.372867        -0.779985        -2.654867
 H        -0.351491         0.950223        -2.079103
 H         0.791037         1.361775        -5.064524
 H         2.376212         2.209327        -4.630624
 H         3.331700         2.016072        -2.211939
 H         1.801637         2.764324        -1.964293
 H         2.617891         1.953704         0.218538
