19
Iteration:  3335charge 0 multiplicity 1
 C         0.223082        -0.323920         0.221551
 C         1.185364         0.233846        -0.663251
 C         0.550438         0.393253        -2.075387
 C         1.599419         1.103308        -2.905794
 C         1.526268         1.222969        -4.426678
 O         2.326019         0.224195        -3.806077
 C         2.410280         1.971995        -2.050989
 C         2.277105         1.258531        -0.609214
 O         2.594375        -0.146861        -0.724161
 H         0.306920        -1.511392         0.059719
 H         0.194101        -0.212473         1.340114
 H        -0.655086         0.057485        -0.047969
 H         0.001226        -0.487925        -2.520672
 H        -0.464227         0.974445        -1.866167
 H         0.632431         0.844888        -4.963384
 H         2.033454         2.034863        -4.962378
 H         3.400137         2.313022        -2.458011
 H         1.924373         2.924957        -1.852642
 H         2.496723         1.821360         0.260527
