19
Iteration:  2909
 C         0.253982        -0.348151         0.395678
 C         1.110893         0.301740        -0.713674
 C         0.495972         0.463147        -2.145795
 C         1.656017         1.102975        -2.885612
 C         1.604325         1.339198        -4.363125
 O         2.294927         0.139126        -3.794716
 C         2.411164         1.998187        -1.955443
 C         2.321736         1.203682        -0.674388
 O         2.493210        -0.228556        -0.882905
 H         0.111619         0.281429         1.378887
 H        -0.736865        -0.624380        -0.032623
 H         0.705936        -1.262142         0.546253
 H         0.187695        -0.447536        -2.640283
 H        -0.400157         1.152663        -1.955396
 H         0.624883         1.140757        -4.822788
 H         2.235245         1.964242        -4.988684
 H         3.541903         2.178818        -2.185523
 H         2.026677         3.014893        -2.153566
 H         2.693786         1.614898         0.187538
