19
Iteration:   680charge 0 multiplicity 1
 C         0.193321         0.024243         0.429388
 C         1.109109         0.205088        -0.744460
 C         0.704432         0.092715        -2.161938
 C         1.645839         0.977841        -2.979126
 C         1.457235         1.584622        -4.297341
 O         2.294132         0.450355        -4.257494
 C         2.608812         1.698902        -1.905096
 C         2.219927         1.129124        -0.630588
 O         2.436315        -0.305335        -0.492825
 H        -0.855847         0.551582         0.227667
 H        -0.082356        -0.988329         0.538450
 H         0.709705         0.465660         1.193704
 H         0.631315        -0.955626        -2.569775
 H        -0.341257         0.491473        -2.108678
 H         0.498446         1.290863        -4.690166
 H         1.777859         2.538180        -4.656032
 H         3.693331         1.562807        -2.235581
 H         2.507669         2.791800        -2.157656
 H         2.359640         1.693407         0.311917
