19
Iteration:   857
 C        -0.106185         0.307208        -0.012465
 C         1.170234         0.273575        -0.792477
 C         1.219165        -0.323355        -2.219834
 C         1.877769         0.755890        -3.082896
 C         0.902800         1.610652        -3.790632
 O         2.006248         0.704775        -4.417611
 C         3.010268         1.413437        -2.016729
 C         2.274841         1.179957        -0.691758
 O         2.401749        -0.098851        -0.111279
 H         0.067336         0.163026         1.143092
 H        -0.686212         1.165733        -0.191016
 H        -0.720372        -0.553550        -0.499434
 H         1.884543        -1.215146        -2.284091
 H         0.198606        -0.663123        -2.534281
 H        -0.080028         1.274363        -3.660253
 H         1.135878         2.610688        -4.019595
 H         3.975542         0.894743        -1.752545
 H         3.061559         2.451164        -2.212723
 H         2.291845         1.898292         0.134793
