19
Iteration:   520
 C         0.277421        -0.134263         0.435922
 C         1.056063         0.239954        -0.754067
 C         0.422059         0.552960        -2.088773
 C         1.682045         1.103238        -2.919767
 C         1.595945         1.413384        -4.399638
 O         2.320078         0.263271        -3.913936
 C         2.558268         1.879054        -1.881010
 C         2.306594         0.985735        -0.659114
 O         2.465543        -0.394486        -0.865947
 H         0.262089        -1.200215         0.568524
 H         0.589906         0.298176         1.343988
 H        -0.863696         0.143093         0.269271
 H        -0.131623        -0.254550        -2.589008
 H        -0.281636         1.374571        -2.114178
 H         0.568064         1.160652        -4.794003
 H         2.072161         2.235919        -4.952118
 H         3.607234         1.763734        -2.190064
 H         2.105759         2.851765        -1.727988
 H         2.574469         1.550610         0.238046
