19
Iteration:   738
 C        -0.012081         0.213342         0.189211
 C         1.138817         0.210485        -0.719658
 C         0.950039        -0.153934        -2.161311
 C         1.776412         0.812292        -2.996956
 C         1.101287         1.638898        -4.118551
 O         2.178722         0.649568        -4.294180
 C         2.857116         1.567984        -1.973222
 C         2.296786         1.168295        -0.631977
 O         2.437114        -0.236801        -0.333080
 H        -0.354129         1.169516         0.435834
 H        -0.741802        -0.277638        -0.388934
 H        -0.006892        -0.536442         1.094298
 H         1.357849        -1.177630        -2.344804
 H        -0.118730        -0.208901        -2.483124
 H         0.167623         1.218133        -4.448418
 H         1.312214         2.668166        -4.336163
 H         3.858241         1.030543        -2.143986
 H         2.705922         2.590715        -2.273963
 H         2.515308         1.755967         0.259060
