19
Iteration:  4839charge 0 multiplicity 1
 C         0.342774        -0.344518         0.374249
 C         1.065358         0.265484        -0.735351
 C         0.535301         0.349147        -2.192681
 C         1.635537         1.129894        -2.935137
 C         1.530264         1.345358        -4.381524
 O         2.360621         0.197404        -3.859193
 C         2.407229         1.993836        -1.908212
 C         2.204975         1.227796        -0.610216
 O         2.528693        -0.208662        -0.825949
 H         0.439253         0.260878         1.288410
 H        -0.753108        -0.255062         0.051852
 H         0.694056        -1.354454         0.688805
 H         0.196624        -0.610326        -2.608953
 H        -0.451144         0.846400        -2.098658
 H         0.559416         1.186954        -4.851397
 H         2.157228         2.039720        -4.958110
 H         3.470079         2.095824        -2.164852
 H         1.962413         3.086115        -1.771327
 H         2.690564         1.594225         0.431684
