19
Iteration:   540
 C         0.331376        -0.230298         0.471302
 C         1.115377         0.252103        -0.771669
 C         0.494865         0.621065        -2.145251
 C         1.580493         1.221209        -2.933763
 C         1.614411         1.314995        -4.394841
 O         2.357827         0.237056        -3.721013
 C         2.525898         1.902854        -1.942878
 C         2.330896         1.081935        -0.663452
 O         2.263785        -0.401232        -0.967421
 H         0.287699        -1.356631         0.408981
 H         0.904309        -0.133725         1.322208
 H        -0.711395         0.254436         0.771234
 H         0.047770        -0.204837        -2.734935
 H        -0.322051         1.323695        -1.968078
 H         0.837146         1.022619        -5.085886
 H         2.313861         2.048520        -4.741373
 H         3.558134         1.909141        -2.444790
 H         2.070861         2.842929        -1.772755
 H         2.988663         1.265602         0.205974
