19
Iteration:   326
 C        -0.172280         0.447824        -0.150202
 C         1.182759         0.147058        -0.759431
 C         1.201876        -0.438147        -2.241433
 C         1.868941         0.709183        -2.995778
 C         0.983650         1.770830        -3.593962
 O         1.913323         0.940545        -4.371721
 C         3.062880         1.188498        -2.137497
 C         2.374491         1.114871        -0.729357
 O         2.374253        -0.162221        -0.089517
 H        -0.500384        -0.490541         0.271046
 H        -0.157785         1.146052         0.830524
 H        -0.821609         0.860937        -0.914936
 H         1.893839        -1.298429        -2.356752
 H         0.197593        -0.709984        -2.639155
 H        -0.086081         1.553779        -3.823402
 H         1.296505         2.833603        -3.544919
 H         3.910767         0.530278        -2.155100
 H         3.206838         2.227553        -2.592121
 H         2.272277         1.940104        -0.014761
