19
Iteration:  1225
 C         0.229903         0.016646         0.471052
 C         1.073331         0.210811        -0.736204
 C         0.631895         0.075867        -2.183581
 C         1.587990         0.951999        -2.911182
 C         1.494125         1.466772        -4.233131
 O         2.392410         0.281346        -4.117796
 C         2.453865         1.850315        -1.959757
 C         2.225472         1.232753        -0.650908
 O         2.505227        -0.208739        -0.750229
 H         0.796062        -0.083769         1.524221
 H        -0.607102         0.743979         0.498003
 H        -0.208196        -0.956073         0.422705
 H         0.778399        -0.989814        -2.364881
 H        -0.391707         0.442397        -2.358169
 H         0.578866         1.403057        -4.846584
 H         2.075407         2.435950        -4.323607
 H         3.491651         2.015751        -2.193922
 H         2.002027         2.834214        -1.951478
 H         2.614054         1.641810         0.297741
