19
Iteration:  3611charge 0 multiplicity 1
 C         0.035179         0.026037         0.358259
 C         1.104270         0.246095        -0.638283
 C         0.834678        -0.081053        -2.075749
 C         1.647728         0.938617        -3.016220
 C         1.227311         1.424717        -4.360166
 O         2.455628         0.634705        -4.206811
 C         2.530970         1.707066        -2.049335
 C         2.261035         1.196650        -0.605005
 O         2.548586        -0.228203        -0.468808
 H        -0.823562        -0.793877         0.101997
 H         0.188692        -0.164054         1.360047
 H        -0.521998         0.895475         0.264058
 H         1.139245        -1.155105        -2.149062
 H        -0.200694         0.153948        -2.257094
 H         0.379879         0.880966        -4.814081
 H         1.484234         2.408767        -4.803065
 H         3.591635         1.547630        -2.343511
 H         2.202065         2.776643        -1.837949
 H         2.658490         1.772350         0.306684
