19
Iteration:  4862charge 0 multiplicity 1
 C         0.242239        -0.377687         0.525695
 C         1.155154         0.196743        -0.753243
 C         0.529251         0.365937        -2.130686
 C         1.580246         1.015592        -2.956433
 C         1.658902         1.486961        -4.417195
 O         2.329187         0.223261        -3.913608
 C         2.372529         1.893184        -1.995627
 C         2.151679         1.251711        -0.712192
 O         2.574585        -0.149486        -0.753421
 H         0.702100        -0.013348         1.511755
 H        -0.801748         0.041569         0.403155
 H         0.388722        -1.461985         0.631532
 H         0.128361        -0.575140        -2.553361
 H        -0.399814         0.816414        -1.821636
 H         0.932098         1.318762        -5.194827
 H         2.296594         2.340354        -4.692492
 H         3.429239         1.969949        -2.177698
 H         1.881388         2.982185        -2.104493
 H         2.553552         1.725130         0.323448
