19
Iteration:  3095charge 0 multiplicity 1
 C         0.082651        -0.111879         0.291173
 C         1.188021         0.262695        -0.655078
 C         0.727393         0.049379        -2.155287
 C         1.641565         0.898543        -2.977155
 C         1.368865         1.532448        -4.321684
 O         2.273352         0.429158        -4.158080
 C         2.539564         1.805615        -1.990455
 C         2.323214         1.276002        -0.593685
 O         2.531391        -0.226219        -0.494260
 H         0.321482        -1.063874         0.959233
 H        -0.198993         0.615870         1.165368
 H        -0.814653        -0.181804        -0.244489
 H         0.840011        -0.987652        -2.164336
 H        -0.311922         0.142105        -2.345682
 H         0.444995         1.186395        -4.769269
 H         1.794184         2.464729        -4.703049
 H         3.587032         1.601089        -2.420959
 H         2.237537         2.904623        -2.051485
 H         2.622698         1.837753         0.219901
