19
Iteration:  3005charge 0 multiplicity 1
 C         0.267848        -0.159441         0.477016
 C         1.119302         0.237437        -0.703076
 C         0.529401         0.234419        -2.117964
 C         1.581310         0.969596        -2.972410
 C         1.655081         1.515876        -4.341107
 O         2.329840         0.241058        -3.986987
 C         2.379951         1.894402        -2.041526
 C         2.280173         1.181844        -0.670708
 O         2.461592        -0.203782        -0.725711
 H         1.104562        -0.437104         1.194490
 H        -0.405458         0.580739         0.946160
 H        -0.323031        -1.068001         0.159569
 H         0.499813        -0.834745        -2.376933
 H        -0.492808         0.575377        -2.228137
 H         0.872930         1.352122        -5.104610
 H         2.282226         2.402289        -4.474359
 H         3.368624         2.239906        -2.423301
 H         1.974702         2.904086        -1.830599
 H         2.545707         1.511793         0.355009
