19
Iteration:    29charge 0 multiplicity 1
 C         0.228691        -0.291812         0.303567
 C         1.157362         0.245194        -0.803534
 C         0.477946         0.697127        -2.109949
 C         1.654632         1.172609        -2.937935
 C         1.655159         1.313515        -4.371191
 O         2.206305         0.162753        -3.765607
 C         2.443089         1.966266        -1.892263
 C         2.357493         1.035017        -0.609615
 O         2.468665        -0.348349        -0.873906
 H         0.227017        -1.382183         0.253088
 H         0.769501         0.168571         1.280612
 H        -0.811937         0.059698         0.341242
 H        -0.061876        -0.186426        -2.570080
 H        -0.293219         1.427299        -1.793670
 H         0.711651         0.950625        -4.853915
 H         2.136716         2.039057        -5.044193
 H         3.475988         2.199849        -2.286378
 H         2.232238         3.078346        -1.946757
 H         2.967670         1.266089         0.285097
