19
Iteration:  2497charge 0 multiplicity 1
 C         0.215296        -0.014451         0.441278
 C         1.108600         0.255551        -0.688754
 C         0.715448        -0.016383        -2.137661
 C         1.599440         1.009408        -3.032620
 C         1.396856         1.348974        -4.478738
 O         2.488372         0.494664        -4.092801
 C         2.377786         1.828188        -1.957380
 C         2.266254         1.193113        -0.676369
 O         2.494642        -0.206227        -0.449214
 H        -0.326834         0.881437         0.834674
 H        -0.542964        -0.904372         0.311370
 H         0.723606        -0.326157         1.272602
 H         0.814283        -1.103560        -2.555392
 H        -0.381226         0.208372        -2.261153
 H         0.520120         0.959515        -5.039121
 H         1.635568         2.354088        -4.917951
 H         3.324365         1.882288        -2.493709
 H         1.791379         2.775616        -2.009002
 H         2.417346         1.726643         0.277820
