19
Iteration:   639
 C         0.194423        -0.211802         0.350006
 C         1.106442         0.278239        -0.730112
 C         0.519442         0.391207        -2.060116
 C         1.660100         1.120785        -2.945147
 C         1.528269         1.408729        -4.342147
 O         2.318836         0.263636        -3.970803
 C         2.613992         1.880707        -2.035276
 C         2.318930         1.160888        -0.619127
 O         2.385067        -0.296202        -0.726376
 H        -0.856216        -0.472661         0.120122
 H         0.685895        -1.108663         0.586828
 H         0.287358         0.313290         1.379547
 H         0.254097        -0.579414        -2.527310
 H        -0.439616         0.943355        -2.020130
 H         0.534265         1.208781        -4.751040
 H         2.028925         2.244048        -4.755861
 H         3.646470         1.533640        -2.335281
 H         2.442802         2.912542        -1.931847
 H         2.701038         1.497725         0.350629
