19
Iteration:  4382
 C         0.346726        -0.441396         0.364460
 C         1.082300         0.305659        -0.765415
 C         0.495388         0.389340        -2.118703
 C         1.522463         1.151350        -2.924136
 C         1.559506         1.173810        -4.388706
 O         2.418530         0.279400        -3.723069
 C         2.450812         1.971326        -1.951718
 C         2.175117         1.299481        -0.714463
 O         2.464482        -0.111392        -0.842037
 H         0.711526        -1.419220         0.173099
 H         0.796065        -0.221703         1.371390
 H        -0.781560        -0.444415         0.518189
 H         0.590488        -0.659611        -2.496737
 H        -0.507214         0.744360        -2.111176
 H         0.778244         0.777749        -5.019233
 H         2.029878         1.954698        -4.994539
 H         3.460878         1.811849        -2.246633
 H         2.358080         3.102748        -1.998500
 H         2.691050         1.797522         0.214710
