19
Iteration:   768charge 0 multiplicity 1
 C        -0.026167         0.175175         0.126742
 C         1.094038         0.192446        -0.799340
 C         1.084269        -0.202280        -2.237700
 C         1.852131         0.820976        -2.948555
 C         1.097244         1.666604        -3.969805
 O         2.046563         0.682014        -4.393203
 C         2.927803         1.427018        -2.040472
 C         2.236371         1.138923        -0.706722
 O         2.413615        -0.103652        -0.125257
 H        -0.190024         1.143308         0.762692
 H        -0.901593        -0.090093        -0.406613
 H         0.004666        -0.597864         0.847075
 H         1.666844        -1.116655        -2.475465
 H         0.050595        -0.198720        -2.590104
 H         0.048101         1.360235        -4.040914
 H         1.223337         2.694309        -4.189965
 H         3.942252         0.884001        -2.097288
 H         3.180015         2.440813        -2.273944
 H         2.267678         1.926546         0.054229
