19
Iteration:  1481
 C        -0.048438         0.101119         0.189016
 C         1.218426         0.203386        -0.693059
 C         1.052360        -0.285370        -2.240329
 C         1.708871         0.883874        -2.971005
 C         1.084860         1.627832        -4.070359
 O         2.144608         0.738435        -4.350374
 C         2.813501         1.414291        -2.138155
 C         2.253538         1.210585        -0.748190
 O         2.468237        -0.076451        -0.058759
 H         0.054714         0.327074         1.310816
 H        -0.784734         0.840634        -0.264209
 H        -0.525885        -0.929830         0.149097
 H         1.575052        -1.254736        -2.324309
 H        -0.038260        -0.288734        -2.435887
 H         0.124153         1.355847        -4.497814
 H         1.382830         2.703755        -4.179363
 H         3.679841         0.718331        -2.208927
 H         3.141965         2.410926        -2.501605
 H         2.434378         1.987687        -0.046803
