19
Iteration:   871
 C        -0.158668         0.341115         0.014892
 C         1.181583         0.230833        -0.812678
 C         1.271489        -0.403140        -2.196012
 C         1.886630         0.845323        -2.932890
 C         0.972909         1.619604        -3.846707
 O         1.966811         0.682518        -4.412757
 C         2.920087         1.491083        -2.051923
 C         2.336012         1.185755        -0.669662
 O         2.380088        -0.188790        -0.133388
 H         0.064216         0.300483         1.005502
 H        -0.645852         1.292964        -0.113274
 H        -0.839492        -0.570831        -0.133544
 H         1.898832        -1.309022        -2.093711
 H         0.333797        -0.686128        -2.742581
 H         0.020118         1.241426        -4.204155
 H         1.169118         2.714746        -4.031250
 H         3.888637         1.039015        -2.431893
 H         3.114163         2.606790        -2.187654
 H         2.366333         2.067010        -0.001962
