19
Iteration:  1510charge 0 multiplicity 1
 C         0.039068         0.128186         0.310876
 C         1.121372         0.262335        -0.760414
 C         1.063408        -0.345211        -2.258891
 C         1.864454         0.775901        -3.050733
 C         1.103157         1.659836        -3.966671
 O         2.159282         0.762048        -4.423943
 C         2.790763         1.358576        -2.048421
 C         2.135357         1.255221        -0.724901
 O         2.387097        -0.069626        -0.206752
 H         0.372406         0.770701         1.224496
 H        -0.903661         0.405225        -0.100245
 H        -0.032051        -0.864587         0.635443
 H         1.474543        -1.343565        -2.139363
 H         0.005390        -0.275548        -2.455094
 H         0.058926         1.522443        -4.346582
 H         1.366891         2.706310        -4.073335
 H         3.751413         0.826921        -1.934111
 H         3.186651         2.293680        -2.370045
 H         2.407954         2.071588         0.016172
