19
Iteration:  3334
 C         0.225003        -0.316963         0.219699
 C         1.189537         0.228470        -0.665864
 C         0.547307         0.394485        -2.080515
 C         1.603092         1.110007        -2.910953
 C         1.520443         1.227190        -4.423264
 O         2.324168         0.214228        -3.808495
 C         2.412215         1.976398        -2.052467
 C         2.262547         1.258417        -0.602736
 O         2.599966        -0.152082        -0.718268
 H         0.351828        -1.464213         0.060295
 H         0.181807        -0.206639         1.349814
 H        -0.643293         0.052302        -0.088808
 H         0.019013        -0.514161        -2.526126
 H        -0.417416         0.975042        -1.854364
 H         0.619249         0.866213        -4.950132
 H         2.048440         2.041981        -4.951324
 H         3.403303         2.296294        -2.489779
 H         1.896172         2.920196        -1.804226
 H         2.492343         1.818554         0.264137
