19
Iteration:  2350charge 0 multiplicity 1
 C         0.254114        -0.332290         0.418797
 C         1.118585         0.210794        -0.757122
 C         0.506595         0.295798        -2.081142
 C         1.528964         1.172912        -2.939630
 C         1.667115         1.201306        -4.425724
 O         2.421854         0.226170        -3.776906
 C         2.322864         2.048789        -2.033820
 C         2.299403         1.217326        -0.705706
 O         2.495814        -0.125552        -0.786751
 H        -0.553108         0.338754         0.769945
 H        -0.084114        -1.240907         0.152775
 H         0.956630        -0.472608         1.327818
 H         0.306805        -0.623128        -2.567356
 H        -0.444906         0.836549        -2.134568
 H         0.843515         0.796743        -4.992425
 H         2.147791         2.111717        -4.833920
 H         3.296350         2.317806        -2.450904
 H         1.743270         2.994936        -1.750253
 H         2.586653         1.870120         0.172288
