19
Iteration:  1468charge 0 multiplicity 1
 C        -0.046615         0.137822         0.054030
 C         1.226120         0.157540        -0.723075
 C         1.094088        -0.204743        -2.147237
 C         1.751440         0.846477        -3.060779
 C         1.040610         1.689753        -4.080720
 O         2.097937         0.609200        -4.351330
 C         2.772404         1.438191        -2.064634
 C         2.303389         1.286361        -0.616893
 O         2.491428        -0.136594        -0.078811
 H         0.272901         0.243431         1.241304
 H        -0.817467         0.898650        -0.221922
 H        -0.480963        -0.784978        -0.122736
 H         1.479110        -1.172376        -2.473868
 H         0.045419        -0.350944        -2.454181
 H        -0.011229         1.403305        -4.349325
 H         1.299412         2.730723        -4.334283
 H         3.723119         0.971803        -2.386517
 H         2.973863         2.484696        -2.086819
 H         2.237685         2.120913         0.132272
