19
Iteration:  3862
 C         0.234619        -0.448303         0.320316
 C         1.169860         0.289269        -0.660121
 C         0.502792         0.358127        -2.101776
 C         1.558262         1.084716        -2.964167
 C         1.582975         1.260930        -4.491218
 O         2.356724         0.222344        -3.757301
 C         2.361314         2.091220        -2.032327
 C         2.286524         1.246690        -0.666816
 O         2.549225        -0.151989        -0.725812
 H        -0.574313        -1.170377         0.051069
 H         0.850035        -0.780193         1.151295
 H        -0.391070         0.375735         0.743047
 H         0.210674        -0.666645        -2.577146
 H        -0.448528         0.772268        -1.942733
 H         0.782843         0.962989        -5.207372
 H         2.296496         2.054199        -4.795416
 H         3.394701         2.158937        -2.439987
 H         2.073946         3.122160        -1.884161
 H         2.805534         1.770824         0.171400
