19
Iteration:  3621
 C         0.003549         0.039136         0.373879
 C         1.144753         0.223708        -0.623375
 C         0.843376        -0.080237        -2.158865
 C         1.657490         0.930238        -2.972609
 C         1.313603         1.457495        -4.355149
 O         2.368917         0.569040        -4.187407
 C         2.525811         1.792767        -2.033473
 C         2.219554         1.180935        -0.649094
 O         2.554251        -0.250003        -0.422425
 H        -0.615035        -0.853071         0.064076
 H         0.427097        -0.093129         1.307720
 H        -0.452167         0.921707         0.488085
 H         1.112522        -1.176969        -2.345045
 H        -0.195471        -0.065971        -2.527798
 H         0.438262         1.010784        -4.845196
 H         1.426327         2.535432        -4.611099
 H         3.571914         1.733295        -2.424642
 H         2.303754         2.890558        -2.195598
 H         2.569289         1.784708         0.256798
