19
Iteration:   363
 C        -0.152843         0.454588        -0.087421
 C         1.237487         0.151901        -0.818326
 C         1.221331        -0.260534        -2.305585
 C         1.883775         0.874769        -3.037032
 C         0.946746         1.744838        -3.773153
 O         1.852831         0.766612        -4.377424
 C         3.015632         1.236610        -2.055430
 C         2.391653         1.116617        -0.600243
 O         2.393092        -0.287621        -0.016077
 H        -0.773427        -0.471530        -0.445262
 H        -0.046117         0.438578         1.032459
 H        -0.769918         1.326878        -0.353285
 H         1.902520        -1.110141        -2.385460
 H         0.231834        -0.562890        -2.715914
 H        -0.076303         1.566617        -3.929642
 H         1.240250         2.736096        -4.028183
 H         4.012651         0.728026        -2.327336
 H         3.393117         2.210720        -2.172484
 H         2.264451         1.970113         0.138855
