19
Iteration:  2769charge 0 multiplicity 1
 C         0.115331        -0.102716         0.366017
 C         1.147524         0.279367        -0.668989
 C         0.741265         0.037631        -2.252935
 C         1.597118         0.963807        -2.979533
 C         1.381910         1.544552        -4.369515
 O         2.277074         0.447616        -4.205447
 C         2.535884         1.663594        -1.981532
 C         2.299943         1.173893        -0.620319
 O         2.548122        -0.154518        -0.370188
 H         0.596742        -0.732807         1.257889
 H        -0.326110         0.768122         0.928485
 H        -0.668096        -0.652307         0.026422
 H         0.883364        -1.011562        -2.438773
 H        -0.275314         0.374196        -2.310818
 H         0.405977         1.457008        -4.878431
 H         1.840570         2.491144        -4.670422
 H         3.586932         1.635865        -2.359873
 H         2.369516         2.766831        -2.087286
 H         2.407303         1.810905         0.207330
