19
Iteration:  1005
 C         0.113107        -0.095871         0.308765
 C         1.195698         0.145735        -0.697466
 C         0.656701         0.065117        -2.177380
 C         1.649590         0.988668        -2.991333
 C         1.383000         1.550530        -4.367807
 O         2.260832         0.460223        -4.198817
 C         2.662414         1.637816        -1.975951
 C         2.264468         1.220652        -0.629747
 O         2.537214        -0.175108        -0.354386
 H         0.425766         0.082363         1.330138
 H        -0.612717         0.736143        -0.024725
 H        -0.482428        -0.983917         0.263104
 H         0.466157        -0.957664        -2.508670
 H        -0.267519         0.624408        -1.977814
 H         0.311118         1.483355        -4.764554
 H         1.893956         2.508910        -4.626808
 H         3.686835         1.339613        -2.219012
 H         2.418114         2.772319        -1.980963
 H         2.149440         1.994403         0.115069
