19
Iteration:  3702charge 0 multiplicity 1
 C         0.137772        -0.238224         0.350166
 C         1.113226         0.384575        -0.674779
 C         0.665567         0.150965        -2.191292
 C         1.590488         0.962350        -2.995852
 C         1.326421         1.409772        -4.374476
 O         2.399218         0.455387        -4.064598
 C         2.643302         1.751960        -2.015439
 C         2.225872         1.270372        -0.682098
 O         2.490088        -0.181559        -0.418809
 H         0.467868        -1.307840         0.408526
 H         0.469955         0.126100         1.399112
 H        -0.806894        -0.361692        -0.063589
 H         0.675349        -0.880702        -2.340098
 H        -0.329356         0.595398        -2.275149
 H         0.457965         1.066121        -4.960149
 H         1.823632         2.303701        -4.751114
 H         3.567675         1.391525        -2.442614
 H         2.503635         2.862265        -2.027189
 H         2.359582         1.849755         0.179930
