19
Iteration:  2804
 C         0.117766        -0.025436         0.341141
 C         1.165715         0.116506        -0.725547
 C         0.775359         0.128342        -2.208007
 C         1.668293         1.020870        -2.965503
 C         1.314259         1.397299        -4.305452
 O         2.306796         0.423013        -4.061897
 C         2.549075         1.839499        -1.937372
 C         2.268024         1.195245        -0.596544
 O         2.529251        -0.249910        -0.587679
 H         0.599775        -0.041689         1.309008
 H        -0.593538         0.826872         0.195667
 H        -0.436491        -0.958862         0.094774
 H         0.416832        -0.809377        -2.602120
 H        -0.080483         0.692862        -2.335456
 H         0.288943         1.083021        -4.529404
 H         1.738736         2.277573        -4.773181
 H         3.533711         1.648258        -2.283875
 H         2.252991         2.938526        -1.823165
 H         2.457298         1.818007         0.290893
