19
Iteration:  3460charge 0 multiplicity 1
 C         0.168592        -0.162632         0.383773
 C         1.129950         0.236925        -0.754523
 C         0.655679         0.231498        -2.177836
 C         1.671449         1.119758        -2.925875
 C         1.376322         1.301218        -4.367268
 O         2.428417         0.319745        -3.960116
 C         2.476699         1.931363        -1.939314
 C         2.275309         1.159091        -0.646107
 O         2.501619        -0.218728        -0.691788
 H        -0.211638        -1.181946         0.255027
 H         0.676880        -0.021505         1.334832
 H        -0.767891         0.538594         0.409717
 H         0.421223        -0.761749        -2.539377
 H        -0.467397         0.616221        -2.017474
 H         0.470077         0.834290        -4.743856
 H         1.651227         2.191415        -4.957912
 H         3.490675         2.145321        -2.256337
 H         2.040332         2.932678        -1.872722
 H         2.627481         1.599519         0.324073
