19
Iteration:   961charge 0 multiplicity 1
 C         0.098683        -0.021354         0.323788
 C         1.041527         0.316584        -0.747656
 C         0.891961        -0.119933        -2.200495
 C         1.794580         0.886420        -2.944437
 C         1.304347         1.626850        -4.156130
 O         2.091055         0.539134        -4.344582
 C         2.857460         1.483289        -1.992346
 C         2.251633         1.312805        -0.641286
 O         2.332569        -0.114796        -0.347455
 H         0.346579         0.340870         1.290475
 H        -1.020720         0.049026         0.070766
 H         0.272425        -1.096504         0.431877
 H         1.457681        -1.061539        -2.294443
 H        -0.130215        -0.189618        -2.617506
 H         0.246081         1.445647        -4.606661
 H         1.687920         2.634677        -4.470302
 H         3.898958         1.091850        -2.061790
 H         2.902130         2.627754        -2.231130
 H         2.515107         1.881285         0.244441
