19
Iteration:  1258charge 0 multiplicity 1
 C         0.198465         0.072950         0.557375
 C         1.154631         0.189373        -0.724796
 C         0.698353         0.000459        -2.237210
 C         1.647070         0.980945        -3.024108
 C         1.288546         1.469470        -4.383227
 O         2.441294         0.510767        -4.138180
 C         2.588682         1.710521        -1.992553
 C         2.182618         1.177854        -0.665999
 O         2.437054        -0.283307        -0.462129
 H         0.869641         0.049289         1.552051
 H        -0.541009         0.893808         0.715789
 H        -0.415900        -0.711075         0.318420
 H         0.716038        -1.021634        -2.612880
 H        -0.264696         0.246630        -2.647206
 H         0.402403         1.148048        -4.965140
 H         1.614788         2.521561        -4.675833
 H         3.625154         1.833070        -2.265199
 H         2.202136         2.705197        -1.984270
 H         2.490861         1.790576         0.198023
