19
Iteration:  1515charge 0 multiplicity 1
 C         0.076783         0.147576         0.312905
 C         1.079835         0.260603        -0.716966
 C         1.095909        -0.311657        -2.284398
 C         1.867167         0.724267        -3.033626
 C         1.114386         1.667003        -3.950149
 O         2.135857         0.741751        -4.414534
 C         2.790237         1.402307        -2.093604
 C         2.142354         1.278496        -0.723166
 O         2.371378        -0.106265        -0.200248
 H         0.337924         0.817842         1.098269
 H        -0.924188         0.378916        -0.185622
 H         0.065908        -0.984386         0.648738
 H         1.422707        -1.379862        -2.404703
 H         0.025155        -0.273449        -2.626078
 H         0.105517         1.477211        -4.274347
 H         1.427111         2.733300        -4.037283
 H         3.713504         0.869948        -1.780725
 H         3.221145         2.432644        -2.301905
 H         2.330025         2.065946        -0.052576
