19
Iteration:  1045
 C         0.171620        -0.067697         0.487025
 C         1.125844         0.254068        -0.770075
 C         0.625981         0.151657        -2.106265
 C         1.743772         1.065659        -2.954386
 C         1.365281         1.408583        -4.371684
 O         2.430886         0.372807        -3.998262
 C         2.533584         1.906117        -1.950020
 C         2.324468         1.091192        -0.652147
 O         2.364122        -0.252878        -0.738082
 H         0.697479        -0.241499         1.393475
 H        -0.483210         0.800538         0.673536
 H        -0.612296        -0.955263         0.132091
 H         0.797693        -0.881883        -2.488861
 H        -0.404837         0.450200        -2.380550
 H         0.473867         0.930285        -4.691242
 H         1.804154         2.161311        -4.987466
 H         3.565261         2.093296        -2.296633
 H         1.994590         2.799948        -1.708179
 H         2.614468         1.526785         0.324183
