19
Iteration:  3485
 C         0.230337        -0.215467         0.392381
 C         1.133696         0.214747        -0.733624
 C         0.685766         0.275388        -2.218619
 C         1.731179         1.081231        -2.926756
 C         1.335316         1.296435        -4.420631
 O         2.359176         0.379331        -4.108593
 C         2.595054         1.809362        -1.893350
 C         2.088886         1.275438        -0.559865
 O         2.508557        -0.205830        -0.582659
 H         0.164791        -1.230821         0.532973
 H         0.710109         0.344546         1.290066
 H        -0.906149         0.145174         0.275873
 H         0.462045        -0.733650        -2.681223
 H        -0.472111         0.762139        -2.176165
 H         0.362381         0.934088        -4.829697
 H         1.637416         2.194113        -4.963514
 H         3.688333         1.667552        -1.935622
 H         2.441142         2.882698        -2.119192
 H         2.281056         1.730767         0.372432
