19
Iteration:  1685charge 0 multiplicity 1
 C        -0.007375        -0.100027         0.283167
 C         1.142065         0.234105        -0.674422
 C         0.795025         0.027506        -2.127384
 C         1.715669         1.022832        -3.054159
 C         1.180871         1.549849        -4.353743
 O         2.236259         0.434883        -4.286767
 C         2.702380         1.717479        -2.016613
 C         2.361708         1.224707        -0.557680
 O         2.536284        -0.213877        -0.272897
 H         0.355102        -0.056968         1.356433
 H        -0.686358         0.725562         0.199081
 H        -0.437094        -0.996033        -0.002955
 H         0.941578        -0.907549        -2.590560
 H        -0.258614         0.219754        -2.273657
 H         0.257191         1.251399        -4.828862
 H         1.619921         2.516124        -4.686005
 H         3.700424         1.282630        -2.109200
 H         2.868753         2.746453        -2.048305
 H         2.445350         1.884255         0.333889
