19
Iteration:   741
 C        -0.024627         0.200533         0.185992
 C         1.153374         0.237875        -0.735642
 C         0.950099        -0.177086        -2.196011
 C         1.788251         0.804626        -2.987814
 C         1.074453         1.650597        -4.077437
 O         2.182629         0.636377        -4.302580
 C         2.864453         1.547360        -1.990899
 C         2.305611         1.193353        -0.624693
 O         2.440765        -0.246837        -0.313566
 H        -0.310414         1.185277         0.486401
 H        -0.912033        -0.294503        -0.442320
 H        -0.031497        -0.498577         1.104087
 H         1.380803        -1.159816        -2.384126
 H        -0.111268        -0.133237        -2.487243
 H         0.140299         1.180816        -4.456923
 H         1.237416         2.749684        -4.374989
 H         3.841241         1.106305        -2.089038
 H         2.839502         2.656471        -2.260846
 H         2.463014         1.809932         0.265680
