19
Iteration:  1920
 C         0.297312        -0.128142         0.408042
 C         1.122517         0.288664        -0.748208
 C         0.591362         0.170359        -2.152358
 C         1.575930         1.031188        -2.904932
 C         1.546825         1.369806        -4.317772
 O         2.417520         0.335606        -3.935049
 C         2.400118         1.926726        -2.028714
 C         2.267139         1.249412        -0.715339
 O         2.407022        -0.313715        -0.683422
 H         0.221642        -1.177564         0.476442
 H         0.915878         0.034886         1.423247
 H        -0.787395         0.316315         0.492232
 H         0.565221        -0.729451        -2.873537
 H        -0.428784         0.528058        -2.106575
 H         0.675069         1.013381        -4.863113
 H         1.875696         2.360224        -4.752562
 H         3.456069         1.987989        -2.298861
 H         2.094138         2.970064        -1.931442
 H         2.455503         1.763042         0.222303
