19
Iteration:  2738
 C         0.141950        -0.137056         0.482353
 C         1.072306         0.280538        -0.695293
 C         0.806136         0.006470        -2.197892
 C         1.741023         0.920937        -2.915908
 C         1.348918         1.542799        -4.238037
 O         2.251690         0.465180        -4.265880
 C         2.711890         1.676607        -2.027879
 C         2.125591         1.268362        -0.726616
 O         2.455433        -0.136795        -0.490286
 H         0.685271        -0.847515         1.133620
 H        -0.065012         0.749645         1.140710
 H        -0.817094        -0.385840         0.074793
 H         0.992290        -1.070599        -2.392303
 H        -0.157491         0.084787        -2.445956
 H         0.370550         1.427238        -4.739252
 H         1.829361         2.504664        -4.404438
 H         3.753213         1.401609        -2.049265
 H         2.483023         2.763709        -2.214351
 H         2.085721         1.737119         0.201915
