19
Iteration:  1036charge 0 multiplicity 1
 C         0.134577        -0.066351         0.434065
 C         1.084482         0.294430        -0.719315
 C         0.709702         0.146860        -2.191439
 C         1.703898         1.048162        -2.960838
 C         1.372577         1.365147        -4.391148
 O         2.351281         0.444081        -4.023424
 C         2.554252         1.819051        -1.948937
 C         2.315856         1.172301        -0.653548
 O         2.461350        -0.336138        -0.625507
 H         0.614818        -0.250676         1.320628
 H        -0.533370         0.834757         0.619079
 H        -0.526787        -1.001620         0.227827
 H         0.651651        -0.912822        -2.494153
 H        -0.324535         0.553114        -2.323174
 H         0.421598         1.046128        -4.842882
 H         1.749925         2.326194        -4.730332
 H         3.565350         2.046470        -2.219900
 H         2.185948         2.852080        -1.867102
 H         2.544045         1.737582         0.246573
