19
Iteration:  2297
 C         0.246888        -0.087385         0.567095
 C         1.101395         0.187242        -0.773122
 C         0.565864         0.129689        -2.209389
 C         1.649844         1.096454        -2.913459
 C         1.490649         1.268136        -4.364837
 O         2.550007         0.328230        -4.014852
 C         2.272270         2.001371        -1.913247
 C         2.185706         1.161537        -0.640155
 O         2.533107        -0.226274        -0.773980
 H        -0.313397         0.949434         0.817170
 H        -0.515567        -0.769321         0.329672
 H         0.764305        -0.267664         1.452925
 H         0.769967        -0.824253        -2.707683
 H        -0.434183         0.521447        -2.454207
 H         0.590049         0.940124        -4.861923
 H         1.816000         2.211916        -4.815131
 H         3.366700         2.107551        -1.975024
 H         1.749191         2.928880        -2.002429
 H         2.584393         1.796881         0.180784
