19
Iteration:  2645charge 0 multiplicity 1
 C         0.109746         0.050987         0.315310
 C         1.073387         0.193220        -0.811999
 C         0.934505        -0.137187        -2.240862
 C         1.761397         0.920000        -2.954661
 C         1.180879         1.523249        -4.139532
 O         2.301600         0.462910        -4.205089
 C         2.569427         1.772452        -2.040173
 C         2.206915         1.207371        -0.638747
 O         2.514991        -0.142561        -0.397896
 H        -0.848703        -0.536917         0.217374
 H         0.435884        -0.430468         1.201564
 H        -0.187087         1.116975         0.654766
 H         1.164956        -1.101077        -2.648649
 H        -0.215884        -0.064740        -2.346716
 H         0.175465         1.195843        -4.390657
 H         1.659732         2.369469        -4.610749
 H         3.675549         1.526981        -2.025736
 H         2.505387         2.855497        -2.131641
 H         2.386267         1.901206         0.235064
