19
Iteration:   882charge 0 multiplicity 1
 C        -0.100404         0.339819         0.029013
 C         1.172749         0.161021        -0.770725
 C         1.260760        -0.310260        -2.214579
 C         1.747408         0.821850        -2.931535
 C         1.062225         1.566114        -3.952320
 O         1.998135         0.725930        -4.339626
 C         2.872175         1.488002        -2.128427
 C         2.323925         1.142375        -0.657191
 O         2.400340        -0.177446        -0.113829
 H         0.208331         0.519731         0.973819
 H        -0.573432         1.234292        -0.389853
 H        -0.942985        -0.455195        -0.094103
 H         2.048345        -1.100418        -2.265328
 H         0.332300        -0.708647        -2.717174
 H        -0.028120         1.444987        -3.968837
 H         1.381841         2.640975        -3.968486
 H         3.892537         1.012239        -2.316762
 H         2.738135         2.610054        -2.311137
 H         2.342726         1.840576         0.210474
