19
Iteration:  2492
 C         0.191505         0.005002         0.462731
 C         1.134815         0.206379        -0.717521
 C         0.670975        -0.034357        -2.128590
 C         1.609223         1.018942        -3.011354
 C         1.366901         1.371497        -4.493837
 O         2.522690         0.444392        -4.093179
 C         2.365397         1.874263        -1.953428
 C         2.226981         1.187769        -0.659147
 O         2.513037        -0.202777        -0.492459
 H        -0.368660         0.928565         0.828804
 H        -0.322779        -0.865026         0.285863
 H         0.842540        -0.321044         1.428167
 H         0.774590        -1.026372        -2.407092
 H        -0.300871         0.336811        -2.455066
 H         0.506458         1.000873        -5.073968
 H         1.724208         2.300404        -4.922908
 H         3.372072         1.939356        -2.445134
 H         1.903843         2.868602        -1.736153
 H         2.364541         1.735869         0.263330
