19
Iteration:  4768
 C         0.304694        -0.224356         0.413907
 C         1.093120         0.217232        -0.784827
 C         0.506023         0.241235        -2.164892
 C         1.620067         1.027510        -2.967348
 C         1.562494         1.413828        -4.354762
 O         2.379833         0.292419        -3.904423
 C         2.366237         1.974080        -1.914412
 C         2.315347         1.176250        -0.647982
 O         2.505512        -0.222606        -0.760432
 H         0.335920         0.407691         1.346548
 H        -0.694892        -0.276223         0.082063
 H         0.621573        -1.189638         0.799032
 H         0.009103        -0.682591        -2.507526
 H        -0.421318         0.916800        -2.204426
 H         0.702124         1.117851        -5.012771
 H         2.021817         2.335906        -4.761150
 H         3.430625         2.255266        -2.138236
 H         1.833708         2.888299        -1.818333
 H         2.635097         1.512814         0.274911
