19
Iteration:  2414charge 0 multiplicity 1
 C         0.312064        -0.490823         0.439188
 C         1.124912         0.302800        -0.719691
 C         0.527112         0.413156        -2.132757
 C         1.608450         1.136900        -3.016371
 C         1.557698         1.271369        -4.500060
 O         2.401115         0.174378        -3.770498
 C         2.371845         1.946251        -2.021494
 C         2.211384         1.302493        -0.728962
 O         2.489500        -0.100175        -0.638670
 H        -0.717673        -0.362090         0.195586
 H         0.484199        -1.571102         0.361435
 H         0.541194         0.067029         1.505718
 H         0.258501        -0.435926        -2.672442
 H        -0.267321         1.198802        -1.888320
 H         0.684636         0.913780        -5.035242
 H         2.056766         2.034863        -5.124701
 H         3.427050         1.900862        -2.267705
 H         2.051800         2.993404        -2.160425
 H         2.520599         1.805219         0.183756
