19
Iteration:  3407charge 0 multiplicity 1
 C         0.346012        -0.163146         0.592301
 C         1.116482         0.158650        -0.784911
 C         0.477983         0.325461        -2.212343
 C         1.583443         1.064735        -2.923209
 C         1.717506         1.319304        -4.410125
 O         2.414293         0.283550        -3.847608
 C         2.238637         1.952761        -1.961259
 C         2.160309         1.160503        -0.708307
 O         2.546836        -0.224882        -0.841791
 H        -0.349787        -0.878639         0.388873
 H         0.914983        -0.576123         1.477782
 H         0.036681         0.964949         0.923749
 H         0.280705        -0.692860        -2.579415
 H        -0.588387         0.754607        -2.130079
 H         0.915078         1.020831        -5.079951
 H         2.271309         2.211304        -4.767275
 H         3.229313         2.197724        -2.352087
 H         1.724802         2.943290        -1.867630
 H         2.356713         1.607486         0.287228
