19
Iteration:  4376
 C         0.362014        -0.440463         0.405461
 C         1.113951         0.345568        -0.789587
 C         0.469155         0.348330        -2.132966
 C         1.556086         1.108523        -2.941513
 C         1.569914         1.169427        -4.395820
 O         2.415697         0.292718        -3.696250
 C         2.446647         1.997122        -1.967148
 C         2.186401         1.297417        -0.714048
 O         2.423087        -0.120584        -0.854434
 H         0.638495        -1.499749         0.068522
 H         0.909402        -0.234001         1.352432
 H        -0.682208        -0.346142         0.523091
 H         0.517868        -0.663730        -2.506219
 H        -0.522932         0.899288        -2.138051
 H         0.714342         0.772187        -4.979706
 H         2.062663         2.079026        -4.790570
 H         3.547956         1.924453        -2.244591
 H         2.218582         3.039683        -1.821758
 H         2.569071         1.689248         0.158664
