19
Iteration:  3691
 C         0.093641        -0.281426         0.363196
 C         1.120142         0.250065        -0.677517
 C         0.664006         0.132006        -2.111726
 C         1.693729         0.935758        -2.978769
 C         1.396917         1.454305        -4.367949
 O         2.342699         0.466730        -4.128086
 C         2.587121         1.728390        -2.099120
 C         2.265565         1.318687        -0.622802
 O         2.476215        -0.105459        -0.442687
 H         0.226857        -1.390105         0.449775
 H         0.118953         0.256209         1.392023
 H        -0.939313         0.011062         0.260492
 H         0.738759        -0.859942        -2.452586
 H        -0.393049         0.337426        -2.249089
 H         0.503476         1.073767        -4.889691
 H         1.756021         2.428391        -4.725300
 H         3.646994         1.490520        -2.211990
 H         2.610634         2.828835        -2.285165
 H         2.625706         1.915361         0.164430
