19
Iteration:  1647charge 0 multiplicity 1
 C         0.057273         0.110455         0.354482
 C         1.133593         0.168780        -0.756640
 C         0.868265        -0.225569        -2.271360
 C         1.723063         0.843822        -3.017396
 C         1.229335         1.694685        -4.072384
 O         2.244337         0.495526        -4.269279
 C         2.743102         1.658680        -2.056315
 C         2.169909         1.235693        -0.648741
 O         2.490549        -0.117307        -0.364167
 H         0.644658        -0.307841         1.147920
 H        -0.535306         1.036458         0.598282
 H        -0.824512        -0.683958         0.331742
 H         1.299702        -1.290897        -2.251230
 H        -0.224792        -0.234283        -2.529837
 H         0.344690         1.341612        -4.634588
 H         1.494752         2.735541        -4.144770
 H         3.689550         1.109099        -2.296462
 H         2.751187         2.812346        -2.264021
 H         2.356565         1.914992         0.176935
