19
Iteration:  2500charge 0 multiplicity 1
 C         0.202880        -0.023826         0.433032
 C         1.105057         0.268517        -0.681240
 C         0.732240        -0.006582        -2.158456
 C         1.594977         0.990079        -3.036318
 C         1.409215         1.344354        -4.466387
 O         2.464787         0.517315        -4.092242
 C         2.380000         1.816938        -1.991916
 C         2.274409         1.190886        -0.661289
 O         2.488012        -0.208634        -0.435984
 H        -0.312036         0.804002         0.763481
 H        -0.586314        -0.800311         0.289275
 H         0.822688        -0.380551         1.351507
 H         0.854907        -1.015832        -2.540473
 H        -0.377041         0.154850        -2.162462
 H         0.572231         0.885610        -4.981961
 H         1.624830         2.337685        -4.852653
 H         3.352693         1.924886        -2.439621
 H         1.824573         2.742082        -2.083615
 H         2.451151         1.766477         0.243025
