19
Iteration:    85charge 0 multiplicity 1
 C         0.401304        -0.417530         0.323359
 C         1.122702         0.340919        -0.764996
 C         0.439495         0.799719        -2.187128
 C         1.537782         1.294208        -2.906448
 C         1.709144         1.210340        -4.396856
 O         2.232477         0.130567        -3.616293
 C         2.489066         1.884664        -1.888683
 C         2.333650         1.117633        -0.618914
 O         2.331393        -0.316026        -1.025403
 H         0.551025        -1.459376         0.091960
 H         0.832408        -0.383631         1.483657
 H        -0.574101        -0.057388         0.339131
 H        -0.079126        -0.143344        -2.501451
 H        -0.246226         1.599702        -1.886760
 H         0.813450         1.101612        -4.990577
 H         2.553457         1.738889        -4.858992
 H         3.456071         1.774850        -2.381855
 H         2.342827         2.997323        -1.703039
 H         2.767176         1.353386         0.331002
