19
Iteration:  1160
 C         0.300324        -0.427068         0.283292
 C         1.088451         0.325320        -0.748881
 C         0.527334         0.569407        -2.109603
 C         1.681680         1.089451        -2.945284
 C         1.450603         1.186411        -4.384452
 O         2.374139         0.189454        -3.760618
 C         2.513782         1.901906        -1.974651
 C         2.207935         1.247349        -0.632947
 O         2.468964        -0.123784        -0.828990
 H         0.812135        -0.141444         1.375065
 H        -0.759931        -0.132486         0.424502
 H         0.318642        -1.454354         0.082084
 H        -0.098486        -0.262123        -2.441457
 H        -0.258143         1.299160        -1.873677
 H         0.522120         0.707155        -4.780054
 H         2.014965         1.981895        -4.994466
 H         3.601155         2.000551        -2.176142
 H         2.259737         2.978649        -1.953475
 H         2.706741         1.576612         0.302100
