19
Iteration:  2434
 C         0.259520        -0.297949         0.391014
 C         1.116717         0.285800        -0.696361
 C         0.513042         0.271801        -2.088616
 C         1.566567         1.071235        -2.969707
 C         1.583546         1.232621        -4.456653
 O         2.369217         0.268893        -3.886516
 C         2.400866         1.969302        -2.021861
 C         2.244025         1.300404        -0.620868
 O         2.529641        -0.149374        -0.683638
 H        -0.765233        -0.253151         0.190047
 H         0.444083        -1.450958         0.310122
 H         0.620366         0.090142         1.459685
 H         0.551776        -0.782027        -2.446673
 H        -0.403859         0.809484        -2.393934
 H         0.789724         0.941500        -5.144986
 H         2.063827         2.156332        -4.860999
 H         3.405249         2.095629        -2.411694
 H         1.961054         3.004000        -1.939865
 H         2.589646         1.797627         0.304411
