19
Iteration:  2686charge 0 multiplicity 1
 C        -0.015806        -0.010416         0.309136
 C         1.187859         0.192812        -0.622572
 C         0.888158        -0.053620        -2.163832
 C         1.680519         0.976609        -2.970021
 C         1.245934         1.526686        -4.338972
 O         2.266656         0.524979        -4.252553
 C         2.596931         1.709467        -2.050080
 C         2.303993         1.169737        -0.657280
 O         2.548760        -0.165177        -0.303261
 H        -0.082381        -1.030306         0.342313
 H         0.256718         0.351954         1.305086
 H        -1.016292         0.469019        -0.092355
 H         1.010818        -1.139304        -2.410540
 H        -0.220868         0.086777        -2.475351
 H         0.254287         1.172930        -4.634893
 H         1.515083         2.539459        -4.641697
 H         3.559958         1.443114        -2.385449
 H         2.392664         2.773398        -2.066069
 H         2.488541         1.763692         0.261732
