19
Iteration:  4182charge 0 multiplicity 1
 C         0.136109        -0.162508         0.423022
 C         1.071703         0.299457        -0.750568
 C         0.837479         0.008929        -2.207985
 C         1.779259         0.895931        -3.021168
 C         1.290614         1.536237        -4.257142
 O         2.302591         0.468594        -4.197688
 C         2.616628         1.784683        -2.026877
 C         2.147664         1.224737        -0.609260
 O         2.483154        -0.167798        -0.458927
 H         0.350504        -1.139428         0.914343
 H         0.183229         0.698515         1.073815
 H        -0.917845        -0.175016         0.174196
 H         1.091364        -1.105097        -2.242396
 H        -0.159156         0.190143        -2.411138
 H         0.301938         1.141077        -4.605569
 H         1.676384         2.529317        -4.569496
 H         3.695032         1.690674        -2.062775
 H         2.269233         2.805501        -2.212262
 H         2.235733         1.823769         0.224059
