19
Iteration:  4022
 C         0.108838        -0.156523         0.435275
 C         1.128221         0.266587        -0.682605
 C         0.851702        -0.045722        -2.251793
 C         1.681788         0.987756        -2.985867
 C         1.309269         1.467016        -4.256097
 O         2.321598         0.426511        -4.228539
 C         2.546986         1.767108        -2.028753
 C         2.219424         1.276023        -0.633844
 O         2.489143        -0.129506        -0.431578
 H        -0.499674        -0.969383         0.107790
 H         0.686988        -0.297633         1.272464
 H        -0.636525         0.717705         0.559796
 H         0.938906        -1.029174        -2.373852
 H        -0.260807         0.179760        -2.524273
 H         0.422346         1.186911        -4.758526
 H         1.716769         2.441597        -4.434806
 H         3.607109         1.650726        -2.249195
 H         2.560262         2.902968        -2.048006
 H         2.190219         2.036672         0.235332
