19
Iteration:  2324charge 0 multiplicity 1
 C         0.321427        -0.113476         0.442856
 C         1.167362         0.218044        -0.795044
 C         0.499387         0.266589        -2.140940
 C         1.599685         0.999392        -2.958800
 C         1.568381         1.261564        -4.458865
 O         2.491151         0.394808        -3.771087
 C         2.223312         1.956840        -2.020876
 C         2.199937         1.214302        -0.613989
 O         2.542579        -0.305559        -0.749227
 H        -0.193480         0.689606         0.925703
 H        -0.397500        -0.991434         0.027508
 H         1.004472        -0.504198         1.330872
 H         0.243143        -0.760304        -2.573151
 H        -0.343133         0.952365        -2.327833
 H         0.888749         0.701160        -5.146706
 H         1.877433         2.273892        -4.799821
 H         3.273269         2.132932        -2.296112
 H         1.585761         2.900445        -2.127408
 H         2.425728         1.851583         0.246304
