19
Iteration:  3268
 C         0.340734        -0.206989         0.546124
 C         1.020268         0.250171        -0.721927
 C         0.571784         0.126350        -2.103289
 C         1.583483         0.944043        -2.966399
 C         1.519186         1.406189        -4.387829
 O         2.477053         0.449970        -4.019752
 C         2.476388         1.783927        -2.070026
 C         2.191219         1.257586        -0.669204
 O         2.401491        -0.123191        -0.655420
 H         0.314265        -1.344040         0.602040
 H         0.699049         0.320246         1.507140
 H        -0.664953        -0.028253         0.496102
 H         0.455606        -0.965709        -2.430029
 H        -0.429071         0.587684        -2.429937
 H         0.723078         1.103751        -5.073499
 H         1.911240         2.420330        -4.637154
 H         3.497977         1.831092        -2.484822
 H         2.213679         2.829757        -2.164878
 H         2.634429         1.604222         0.269746
