19
Iteration:  4934charge 0 multiplicity 1
 C         0.076737        -0.117502         0.354221
 C         1.138959         0.172706        -0.717409
 C         0.697158         0.134353        -2.153430
 C         1.665229         1.078101        -2.886816
 C         1.249432         1.311509        -4.348561
 O         2.479616         0.397862        -4.040642
 C         2.485285         1.928550        -1.897811
 C         2.271207         1.235046        -0.594383
 O         2.577996        -0.229077        -0.756071
 H         0.685832        -0.440638         1.162232
 H        -0.426481         0.837855         0.614264
 H        -0.601908        -0.972644         0.031088
 H         0.640925        -0.895416        -2.524645
 H        -0.387545         0.530618        -2.356126
 H         0.331019         0.753446        -4.693155
 H         1.474235         2.338677        -4.747180
 H         3.593760         2.062266        -2.101250
 H         1.992515         2.832630        -1.745421
 H         2.629213         1.657593         0.414594
