19
Iteration:  3894charge 0 multiplicity 1
 C         0.355593        -0.337983         0.367357
 C         1.120497         0.244311        -0.753373
 C         0.478564         0.339511        -2.186488
 C         1.578396         1.046771        -2.962572
 C         1.557140         1.337902        -4.394140
 O         2.359127         0.218896        -3.831593
 C         2.398071         1.961853        -1.960192
 C         2.178145         1.265840        -0.652173
 O         2.550375        -0.145008        -0.711306
 H         0.111416        -1.391006         0.293069
 H         0.827184        -0.173525         1.306033
 H        -0.509695         0.373617         0.385958
 H         0.402429        -0.676079        -2.659455
 H        -0.408098         0.897402        -2.057312
 H         0.694673         1.124100        -5.044934
 H         2.188319         2.154295        -4.780487
 H         3.459805         1.806063        -2.206632
 H         2.015786         2.969659        -1.981026
 H         2.518875         1.750555         0.314052
