19
Iteration:    56
 C         0.330826        -0.430348         0.339164
 C         1.103665         0.308356        -0.787043
 C         0.361645         0.780498        -2.053524
 C         1.583563         1.212096        -2.880062
 C         1.709723         1.221644        -4.345244
 O         2.229330         0.123406        -3.563832
 C         2.630841         1.919572        -1.919343
 C         2.335816         1.116164        -0.785777
 O         2.379011        -0.257650        -1.084701
 H         0.572422        -1.491895         0.042144
 H         0.415767        -0.249958         1.408988
 H        -0.784480        -0.261525         0.098792
 H        -0.231299        -0.001499        -2.478537
 H        -0.293860         1.582618        -1.670690
 H         0.932373         0.793721        -4.974744
 H         2.336425         1.992958        -4.783308
 H         3.603580         2.209297        -2.284629
 H         2.281558         2.908558        -1.637109
 H         2.605258         1.441903         0.217314
