19
Iteration:  1275
 C         0.162617         0.039530         0.380243
 C         1.095185         0.181048        -0.738411
 C         0.785412         0.076691        -2.219229
 C         1.648209         1.007290        -3.010085
 C         1.288699         1.437151        -4.373265
 O         2.338217         0.549862        -4.187793
 C         2.551668         1.747625        -2.050146
 C         2.318152         1.099452        -0.625876
 O         2.479926        -0.265350        -0.283552
 H         0.717173        -0.024905         1.243876
 H        -0.575794         0.866578         0.447765
 H        -0.633218        -0.880407         0.415541
 H         0.850384        -1.004713        -2.549016
 H        -0.343399         0.271818        -2.208603
 H         0.405678         0.898440        -4.730615
 H         1.488489         2.383642        -4.815100
 H         3.605502         1.545324        -2.404069
 H         2.670055         2.905117        -2.083649
 H         2.378982         1.741310         0.251606
