19
Iteration:  4889
 C         0.374092        -0.259893         0.405488
 C         1.105391         0.249422        -0.799223
 C         0.492556         0.271789        -2.188206
 C         1.542103         0.994578        -2.942143
 C         1.595577         1.419676        -4.398759
 O         2.368932         0.340843        -3.971215
 C         2.390342         1.862742        -1.964691
 C         2.246955         1.261441        -0.639778
 O         2.493562        -0.194993        -0.605978
 H         1.047276        -0.363739         1.275555
 H        -0.477248         0.347280         0.680835
 H        -0.008019        -1.275406         0.121887
 H         0.293448        -0.742940        -2.519837
 H        -0.541741         0.687443        -1.956143
 H         0.818157         1.064558        -5.127960
 H         2.161354         2.353479        -4.603590
 H         3.459240         1.887059        -2.309114
 H         1.968154         2.813684        -1.926934
 H         2.365694         1.617887         0.308884
