19
Iteration:   985charge 0 multiplicity 1
 C         0.071724        -0.077520         0.337310
 C         1.078870         0.198716        -0.747911
 C         0.795986         0.032886        -2.196265
 C         1.790123         0.933257        -3.009649
 C         1.343485         1.679432        -4.197896
 O         2.150905         0.397050        -4.272588
 C         2.698808         1.608197        -2.052567
 C         2.186226         1.248497        -0.636075
 O         2.531541        -0.139674        -0.306604
 H         0.436950         0.152584         1.432777
 H        -0.943015         0.349351         0.129315
 H        -0.063507        -1.079456         0.395394
 H         0.953931        -0.990012        -2.572630
 H        -0.256856         0.318166        -2.308967
 H         0.353636         1.645112        -4.762396
 H         1.940982         2.597416        -4.425611
 H         3.724015         1.143129        -2.074211
 H         2.919977         2.675098        -2.356390
 H         2.278013         1.908302         0.228978
