19
Iteration:  3158charge 0 multiplicity 1
 C         0.139235        -0.152258         0.479160
 C         1.073223         0.253181        -0.752325
 C         0.749641         0.054645        -2.154341
 C         1.717083         0.954164        -3.003307
 C         1.320351         1.465663        -4.332502
 O         2.357664         0.473386        -4.254064
 C         2.595389         1.711584        -1.996333
 C         2.174328         1.243101        -0.618013
 O         2.495158        -0.117550        -0.436170
 H        -0.324249        -1.180772         0.378069
 H         0.918455        -0.089210         1.287218
 H        -0.672004         0.494238         0.650085
 H         1.047736        -1.018056        -2.458208
 H        -0.297107         0.418036        -2.427262
 H         0.387820         1.110240        -4.801464
 H         1.563175         2.512915        -4.599321
 H         3.568549         1.283743        -2.263599
 H         2.518452         2.749480        -2.077228
 H         2.264067         1.989019         0.266393
