19
Iteration:  3126
 C         0.194618        -0.110576         0.457881
 C         1.089827         0.147780        -0.781603
 C         0.726164         0.012822        -2.211518
 C         1.689182         0.906474        -3.008678
 C         1.428991         1.616372        -4.297233
 O         2.248711         0.402396        -4.191102
 C         2.600472         1.777827        -1.982290
 C         2.104323         1.260438        -0.682206
 O         2.527772        -0.147687        -0.393475
 H         0.342764        -1.251393         0.795930
 H         0.653448         0.678082         1.150764
 H        -0.810318         0.105749         0.369115
 H         0.824533        -1.081697        -2.357711
 H        -0.355117         0.226150        -2.401922
 H         0.479858         1.390542        -4.790306
 H         1.925110         2.551446        -4.595410
 H         3.598103         1.507687        -2.350555
 H         2.699109         2.784353        -2.188573
 H         2.062626         1.998033         0.171299
