19
Iteration:  4004
 C         0.109643        -0.056453         0.400587
 C         1.106752         0.157679        -0.707844
 C         0.803567         0.043196        -2.104796
 C         1.821926         0.891537        -2.988024
 C         1.351555         1.478176        -4.309038
 O         2.279974         0.404327        -4.233439
 C         2.539227         1.829210        -1.920439
 C         2.096745         1.266614        -0.602780
 O         2.558026        -0.143749        -0.544065
 H        -0.288769        -1.099281         0.329787
 H         0.633710        -0.007778         1.417678
 H        -0.733134         0.619800         0.160128
 H         0.955082        -1.029646        -2.616460
 H        -0.266267         0.132964        -2.433794
 H         0.282952         1.206508        -4.576684
 H         1.605728         2.483388        -4.789524
 H         3.664705         1.961370        -2.156627
 H         2.201645         2.876127        -2.074978
 H         2.437568         1.686365         0.348694
