19
Iteration:  1656
 C         0.087215         0.026805         0.312200
 C         1.132065         0.225978        -0.773746
 C         0.870927        -0.178362        -2.182197
 C         1.690127         0.912218        -2.966426
 C         1.239678         1.629133        -4.142506
 O         2.244577         0.513133        -4.247479
 C         2.651489         1.595703        -2.079171
 C         2.262835         1.222442        -0.670784
 O         2.461676        -0.130471        -0.331538
 H         0.548064        -0.207671         1.371146
 H        -0.388455         1.076624         0.525091
 H        -0.688132        -0.689928         0.028437
 H         1.331672        -1.125299        -2.572843
 H        -0.201821        -0.143924        -2.494480
 H         0.261561         1.495963        -4.649402
 H         1.709883         2.616153        -4.288750
 H         3.689409         1.255126        -2.159663
 H         2.807499         2.700455        -2.158109
 H         2.264582         2.012176         0.077018
