19
Iteration:   507charge 0 multiplicity 1
 C         0.151749        -0.069404         0.430296
 C         1.117828         0.223232        -0.766913
 C         0.491089         0.493831        -2.155697
 C         1.628911         1.113363        -2.922952
 C         1.513660         1.444173        -4.300094
 O         2.297240         0.253011        -4.069853
 C         2.584587         1.754634        -1.891135
 C         2.328327         1.070090        -0.608273
 O         2.519976        -0.364098        -0.782040
 H         0.292463        -1.190482         0.586348
 H         0.431116         0.424504         1.282886
 H        -0.986505         0.080089         0.193051
 H         0.085850        -0.392831        -2.676105
 H        -0.272734         1.174540        -1.826163
 H         0.651451         1.335839        -4.924307
 H         2.149233         2.269933        -4.568095
 H         3.659946         1.977192        -2.174214
 H         2.302078         2.751147        -1.720005
 H         2.668312         1.295204         0.406307
