19
Iteration:  2088
 C        -0.067968        -0.081188         0.288486
 C         1.137409         0.208353        -0.626709
 C         0.927637        -0.150732        -2.095340
 C         1.726630         0.947465        -2.998147
 C         1.213397         1.433592        -4.294233
 O         2.291182         0.516757        -4.254629
 C         2.654233         1.772423        -2.037767
 C         2.189418         1.289769        -0.654279
 O         2.572657        -0.086264        -0.397841
 H        -0.500773         0.985299         0.539303
 H        -0.780836        -0.677935        -0.120053
 H         0.299899        -0.393823         1.353961
 H         1.288922        -1.130281        -2.342931
 H        -0.133573        -0.288307        -2.521678
 H         0.339008         1.129753        -4.850983
 H         1.541277         2.433112        -4.386852
 H         3.733076         1.602399        -2.208858
 H         2.546100         2.860510        -1.926425
 H         2.329799         1.879312         0.300304
