19
Iteration:    62
 C         0.333010        -0.454118         0.303658
 C         1.023948         0.294266        -0.787752
 C         0.340084         0.790716        -2.063737
 C         1.602976         1.225223        -2.829854
 C         1.746852         1.243479        -4.347668
 O         2.212322         0.109300        -3.520801
 C         2.660799         1.980269        -1.968612
 C         2.367547         1.106440        -0.815286
 O         2.347076        -0.258793        -1.070985
 H         0.749694        -1.447987         0.151707
 H         0.685258        -0.343554         1.465647
 H        -0.757162        -0.343185         0.236346
 H        -0.176578        -0.122296        -2.516448
 H        -0.370057         1.560273        -1.720832
 H         0.928035         0.698288        -4.868326
 H         2.296063         2.089740        -4.834357
 H         3.738882         1.999902        -2.303101
 H         2.147649         2.975618        -1.819333
 H         2.744827         1.404811         0.168702
