19
Iteration:  4168charge 0 multiplicity 1
 C         0.177985        -0.021498         0.341188
 C         1.094418         0.181709        -0.786269
 C         0.748557        -0.034162        -2.254826
 C         1.762235         0.938417        -2.942436
 C         1.238670         1.456918        -4.202394
 O         2.363498         0.514102        -4.264005
 C         2.564829         1.739106        -1.961212
 C         2.182034         1.228333        -0.656459
 O         2.505737        -0.165679        -0.330986
 H         0.558951        -1.008033         0.702210
 H         0.326130         0.622886         1.279014
 H        -0.842731        -0.147952         0.104352
 H         0.810544        -0.986735        -2.727481
 H        -0.247430         0.365188        -2.586957
 H         0.287022         1.132272        -4.710918
 H         1.502416         2.499131        -4.510491
 H         3.661276         1.709764        -2.307032
 H         2.434084         2.828387        -1.960760
 H         2.230317         1.863975         0.170770
