19
Iteration:  2542
 C         0.089134        -0.056115         0.289823
 C         1.161809         0.199155        -0.759602
 C         0.822728        -0.018445        -2.158452
 C         1.754234         0.920728        -2.917116
 C         1.321811         1.373231        -4.266328
 O         2.257501         0.397901        -4.177704
 C         2.563246         1.792281        -1.988150
 C         2.129551         1.312793        -0.576006
 O         2.582258        -0.041965        -0.508664
 H        -0.361403         0.841750         0.601680
 H        -0.616391        -0.908781        -0.049720
 H         0.498863        -0.514209         1.210884
 H         0.988735        -1.139997        -2.377732
 H        -0.218220         0.219642        -2.535663
 H         0.312985         1.092104        -4.612856
 H         1.559622         2.309521        -4.807980
 H         3.630356         1.660997        -1.972261
 H         2.250720         2.846990        -1.902627
 H         2.263985         1.936888         0.317789
