19
Iteration:  3091charge 0 multiplicity 1
 C         0.066314        -0.124873         0.272806
 C         1.195322         0.294037        -0.649911
 C         0.743819         0.060726        -2.130577
 C         1.642744         0.929202        -2.985909
 C         1.335303         1.506637        -4.313252
 O         2.293402         0.422342        -4.154445
 C         2.563112         1.847881        -2.033171
 C         2.322421         1.230556        -0.597380
 O         2.529834        -0.234763        -0.499188
 H         0.281477        -0.964453         0.935185
 H        -0.069561         0.618638         1.047383
 H        -0.962372        -0.274124        -0.179960
 H         0.886534        -1.088561        -2.127737
 H        -0.389034         0.269223        -2.289026
 H         0.397748         1.155012        -4.807579
 H         1.748967         2.439464        -4.719778
 H         3.573600         1.608636        -2.261682
 H         2.189674         2.819179        -1.951503
 H         2.598451         1.806325         0.440187
