19
Iteration:  3228
 C         0.159755        -0.013487         0.384734
 C         1.207879         0.109563        -0.701610
 C         0.779640         0.067986        -2.201684
 C         1.669063         1.032939        -2.976297
 C         1.377453         1.383968        -4.375612
 O         2.323341         0.395505        -4.100404
 C         2.429077         1.907228        -1.933132
 C         2.218670         1.145438        -0.595880
 O         2.521294        -0.193244        -0.565812
 H        -0.562243        -0.903519         0.319788
 H         0.814428         0.037000         1.262405
 H        -0.500643         0.895797         0.299290
 H         0.908114        -0.899906        -2.608485
 H        -0.240178         0.379027        -2.055468
 H         0.436342         1.057337        -4.837516
 H         1.830620         2.277975        -4.790050
 H         3.532857         2.059866        -2.095992
 H         1.791029         2.799127        -1.909182
 H         2.233153         1.770665         0.248656
