19
Iteration:  4678charge 0 multiplicity 1
 C         0.121573        -0.147155         0.220186
 C         1.154055         0.207018        -0.750541
 C         0.710854         0.074069        -2.236229
 C         1.734925         1.004677        -2.975745
 C         1.211467         1.415404        -4.263969
 O         2.381529         0.398279        -4.089369
 C         2.562688         1.900068        -1.970692
 C         2.317223         1.252559        -0.566479
 O         2.537522        -0.196207        -0.485062
 H         0.644142        -0.846607         0.992786
 H        -0.345729         0.690809         0.814939
 H        -0.687248        -0.758992        -0.094013
 H         0.647583        -1.076204        -2.389884
 H        -0.334485         0.583039        -2.190807
 H         0.257018         0.984068        -4.587487
 H         1.442772         2.361597        -4.819939
 H         3.597272         2.094097        -2.216027
 H         1.968249         2.818972        -1.928238
 H         2.215264         1.755659         0.510943
