19
Iteration:   368charge 0 multiplicity 1
 C        -0.187491         0.410963        -0.053057
 C         1.264437         0.136664        -0.814332
 C         1.219578        -0.287765        -2.268554
 C         1.864481         0.907438        -3.013855
 C         0.990668         1.776645        -3.805666
 O         1.876477         0.748399        -4.379626
 C         2.992223         1.240479        -2.071787
 C         2.383232         1.124052        -0.610817
 O         2.383821        -0.286001        -0.054281
 H        -0.870061        -0.351737        -0.297084
 H        -0.146177         0.386890         1.049553
 H        -0.653543         1.467067        -0.274316
 H         1.930827        -1.140522        -2.324085
 H         0.249604        -0.497704        -2.699110
 H        -0.115616         1.488694        -3.816022
 H         1.267014         2.797465        -4.194771
 H         3.882747         0.727122        -2.364659
 H         3.340073         2.336425        -2.088420
 H         2.464434         2.005055        -0.002144
