19
Iteration:  3603
 C         0.002382         0.039234         0.367210
 C         1.183361         0.237890        -0.677699
 C         0.792227        -0.052708        -2.074054
 C         1.687290         0.949141        -3.019781
 C         1.174898         1.373231        -4.343574
 O         2.484581         0.651864        -4.213383
 C         2.511476         1.675933        -1.979535
 C         2.330776         1.171182        -0.602719
 O         2.506539        -0.198804        -0.485341
 H        -0.639309        -0.825922        -0.115917
 H         0.413492        -0.166240         1.439323
 H        -0.784377         0.924249         0.196614
 H         1.004370        -1.053257        -2.324134
 H        -0.288834         0.043170        -2.126515
 H         0.367841         0.819729        -4.862162
 H         1.381996         2.378914        -4.709330
 H         3.569253         1.606787        -2.173842
 H         2.346789         2.777027        -2.011612
 H         2.443225         1.844569         0.210884
