19
Iteration:  1031charge 0 multiplicity 1
 C         0.117518        -0.038023         0.388080
 C         1.094017         0.275639        -0.676627
 C         0.717964         0.170887        -2.227101
 C         1.657801         1.022738        -2.956850
 C         1.376993         1.383668        -4.374772
 O         2.342178         0.444399        -4.058645
 C         2.549690         1.820509        -1.968014
 C         2.286413         1.168314        -0.632962
 O         2.501619        -0.341289        -0.571891
 H         0.749645        -0.301271         1.366479
 H        -0.580529         0.743474         0.560405
 H        -0.436789        -0.946338         0.206146
 H         0.712479        -0.886854        -2.513792
 H        -0.280023         0.609722        -2.291337
 H         0.477169         1.034169        -4.888876
 H         1.698218         2.388302        -4.705110
 H         3.667152         1.794068        -2.251501
 H         2.167731         2.858791        -1.917167
 H         2.571963         1.726285         0.282933
