19
Iteration:  4913charge 0 multiplicity 1
 C         0.219516        -0.226913         0.476088
 C         1.058154         0.183251        -0.705368
 C         0.711909         0.237757        -2.196273
 C         1.717985         1.069832        -2.903438
 C         1.397727         1.360209        -4.400598
 O         2.377202         0.359090        -3.966805
 C         2.433045         1.974846        -1.959424
 C         2.253756         1.209720        -0.661578
 O         2.501455        -0.211962        -0.724387
 H         0.688850        -0.530751         1.363314
 H        -0.479091         0.633284         0.655788
 H        -0.439068        -1.039256         0.034359
 H         0.717424        -0.808479        -2.533634
 H        -0.380370         0.599638        -2.452017
 H         0.413072         0.933152        -4.674709
 H         1.867809         2.188892        -4.984262
 H         3.512617         1.853909        -2.221449
 H         2.074066         2.961937        -1.963568
 H         2.317329         1.470093         0.423508
