19
Iteration:  4672
 C         0.124442        -0.130698         0.219484
 C         1.148392         0.190840        -0.728274
 C         0.730782         0.071700        -2.187936
 C         1.723250         1.017790        -2.969056
 C         1.280025         1.403478        -4.272882
 O         2.316520         0.389266        -4.128108
 C         2.554797         1.922569        -1.920670
 C         2.287733         1.236980        -0.563557
 O         2.561643        -0.181688        -0.500280
 H         0.382447        -0.855829         0.972453
 H        -0.211299         0.753426         0.711627
 H        -0.784996        -0.694247        -0.191799
 H         0.812137        -0.940020        -2.510532
 H        -0.329395         0.173924        -2.396834
 H         0.324544         0.898992        -4.543375
 H         1.360309         2.365474        -4.796001
 H         3.644709         2.114800        -2.275090
 H         2.127627         2.950554        -1.804982
 H         2.291250         1.680239         0.346481
