19
Iteration:   244
 C        -0.096375         0.160495         0.086145
 C         1.161706         0.299912        -0.751284
 C         0.995204        -0.227253        -2.258450
 C         1.790444         0.877850        -2.961107
 C         1.135073         1.809699        -3.976179
 O         1.947660         0.732953        -4.363013
 C         3.024743         1.255251        -1.976598
 C         2.388315         1.151574        -0.635270
 O         2.382964        -0.233094        -0.188437
 H        -0.327667        -0.901353         0.416718
 H        -0.084832         0.841256         0.848895
 H        -1.006396         0.527781        -0.609792
 H         1.544108        -1.164868        -2.360288
 H         0.001896        -0.392985        -2.720449
 H         0.089223         1.795533        -4.323648
 H         1.644338         2.781545        -4.023499
 H         3.931687         0.657827        -2.274839
 H         3.380370         2.244115        -2.145522
 H         2.585749         2.008242         0.077164
