19
Iteration:  4637charge 0 multiplicity 1
 C         0.090606        -0.095760         0.406775
 C         1.147436         0.167928        -0.720092
 C         0.804748        -0.114835        -2.164246
 C         1.645184         0.934216        -2.993879
 C         1.353555         1.597888        -4.368565
 O         2.309982         0.478393        -4.131832
 C         2.509080         1.828859        -2.010025
 C         2.175564         1.215136        -0.624268
 O         2.569585        -0.149574        -0.460159
 H         0.475400        -0.904570         1.126742
 H        -0.030874         0.805779         0.980621
 H        -0.834465        -0.270591        -0.086178
 H         1.403046        -1.006558        -2.448475
 H        -0.279017        -0.101743        -2.401035
 H         0.457737         1.121384        -4.840208
 H         1.713127         2.649979        -4.634137
 H         3.601897         1.594484        -2.376956
 H         2.287717         2.921551        -2.030973
 H         2.269087         1.848784         0.257388
