19
Iteration:  4335
 C         0.366907        -0.235425         0.480803
 C         1.144005         0.162224        -0.706717
 C         0.507423         0.325781        -2.139260
 C         1.568954         1.086735        -2.989456
 C         1.696549         1.248737        -4.452065
 O         2.438557         0.232265        -3.838909
 C         2.180024         2.038251        -1.901570
 C         2.161855         1.176122        -0.646805
 O         2.596351        -0.211598        -0.877445
 H        -0.413301        -1.017154         0.291476
 H         0.873023        -0.522221         1.348993
 H        -0.166339         0.741174         0.742192
 H        -0.044463        -0.576610        -2.639332
 H        -0.245710         1.138275        -1.964328
 H         0.905507         1.022757        -5.265910
 H         2.144623         2.264529        -4.837655
 H         3.080748         2.661779        -2.113775
 H         1.403977         2.867250        -1.735533
 H         2.256881         1.764791         0.273982
