19
Iteration:   182charge 0 multiplicity 1
 C         0.131252         0.144420         0.400444
 C         1.097508         0.182814        -0.727227
 C         0.781446         0.082677        -2.189132
 C         1.721572         0.979511        -2.989479
 C         1.315597         1.634682        -4.243786
 O         2.310093         0.570643        -4.291837
 C         2.669712         1.606066        -1.987471
 C         2.251168         1.094032        -0.597709
 O         2.380838        -0.444282        -0.452609
 H        -0.748070        -0.456705         0.296291
 H         0.614904        -0.283739         1.342978
 H        -0.043909         1.220331         0.564164
 H         1.029180        -1.000712        -2.373511
 H        -0.227854         0.318264        -2.512992
 H         0.284648         1.431263        -4.643400
 H         1.700582         2.657889        -4.599366
 H         3.711568         1.349685        -2.221836
 H         2.566034         2.720316        -1.878239
 H         2.286213         1.642374         0.325147
