19
Iteration:  3188
 C         0.031781        -0.084420         0.245586
 C         1.213895         0.225748        -0.734734
 C         0.809670         0.035146        -2.066594
 C         1.655144         0.975877        -2.927574
 C         1.268652         1.403120        -4.302389
 O         2.340651         0.448241        -4.106282
 C         2.521141         1.783449        -2.008672
 C         2.328909         1.267397        -0.654496
 O         2.538668        -0.181821        -0.496237
 H        -0.597487        -0.834188        -0.095379
 H         0.356765        -0.481909         1.160895
 H        -0.581472         0.915842         0.431689
 H         0.953000        -0.997536        -2.511075
 H        -0.244933         0.349822        -2.240225
 H         0.366022         0.950607        -4.762194
 H         1.504077         2.429617        -4.605346
 H         3.508086         1.706965        -2.473844
 H         2.052291         2.848149        -1.808227
 H         2.523668         1.893123         0.314612
