19
Iteration:  1803charge 0 multiplicity 1
 C         0.290402        -0.174905         0.401057
 C         1.107130         0.253783        -0.751271
 C         0.512674         0.398738        -2.175963
 C         1.644229         1.079952        -2.892537
 C         1.523944         1.282334        -4.387579
 O         2.409915         0.250530        -3.755776
 C         2.366869         1.954764        -1.914828
 C         2.258689         1.145187        -0.671774
 O         2.530141        -0.273964        -0.899344
 H         0.819792        -0.188775         1.351801
 H        -0.516856         0.477872         0.542767
 H        -0.037518        -1.312067         0.150272
 H         0.045177        -0.389601        -2.761291
 H        -0.317530         1.141693        -2.002966
 H         0.713649         0.811130        -4.893286
 H         1.845283         2.204591        -4.894808
 H         3.441477         2.091643        -2.233956
 H         1.838496         2.954388        -1.972212
 H         2.536524         1.616149         0.292503
