19
Iteration:  3831charge 0 multiplicity 1
 C         0.331697        -0.253860         0.330381
 C         1.032863         0.255041        -0.779590
 C         0.540601         0.368906        -2.161179
 C         1.708917         1.051192        -2.928529
 C         1.499433         1.162567        -4.361659
 O         2.454818         0.255750        -3.829085
 C         2.324412         1.982858        -1.897732
 C         2.157260         1.226385        -0.580488
 O         2.558923        -0.155033        -0.886736
 H        -0.556874        -0.990784         0.205140
 H         1.152422        -0.627096         1.104857
 H         0.080851         0.595777         0.944500
 H         0.059039        -0.607130        -2.652112
 H        -0.407798         1.049418        -2.027966
 H         0.546029         0.796117        -4.825527
 H         1.965691         2.019862        -4.907421
 H         3.391564         2.262487        -2.117856
 H         1.843058         3.012932        -1.727049
 H         2.420786         1.673568         0.377808
