19
Iteration:   200charge 0 multiplicity 1
 C         0.024249         0.238898         0.322590
 C         1.119350         0.154305        -0.785278
 C         0.774007        -0.135447        -2.280446
 C         1.744285         0.936204        -3.001228
 C         1.266078         1.684235        -4.169133
 O         2.186412         0.638875        -4.328772
 C         2.787736         1.559815        -1.908218
 C         2.325311         1.031923        -0.604119
 O         2.445654        -0.307187        -0.335314
 H        -0.604155        -0.686185         0.107435
 H         0.465245         0.022150         1.211232
 H        -0.518731         1.282935         0.537916
 H         0.847667        -1.169975        -2.607270
 H        -0.269827         0.236341        -2.436235
 H         0.286874         1.486541        -4.666596
 H         1.707259         2.668941        -4.322770
 H         3.883390         1.293460        -2.055485
 H         2.839325         2.624124        -1.991867
 H         2.603607         1.611284         0.337273
