19
Iteration:  2704charge 0 multiplicity 1
 C         0.141977        -0.041671         0.322955
 C         1.190230         0.211861        -0.780424
 C         0.790641        -0.026904        -2.176460
 C         1.686463         0.958862        -3.015277
 C         1.214376         1.508934        -4.239373
 O         2.269739         0.508855        -4.214484
 C         2.690109         1.671673        -2.004034
 C         2.182213         1.255455        -0.640752
 O         2.496404        -0.190754        -0.323567
 H         0.078448        -1.114321         0.759765
 H         0.205510         0.799283         1.048451
 H        -0.766077         0.052672        -0.143548
 H         1.060514        -1.001284        -2.596832
 H        -0.206432         0.231983        -2.242583
 H         0.316647         1.190403        -4.781474
 H         1.623630         2.466468        -4.564302
 H         3.768702         1.431200        -2.136454
 H         2.609990         2.786990        -2.142657
 H         2.149357         1.928316         0.194029
