19
Iteration:  1207
 C         0.222888        -0.144628         0.392215
 C         1.151218         0.228050        -0.714687
 C         0.582818         0.213618        -2.140743
 C         1.660763         1.008811        -2.951250
 C         1.535226         1.442478        -4.426334
 O         2.274954         0.290868        -3.920845
 C         2.394312         1.868236        -1.988460
 C         2.308472         1.218342        -0.655671
 O         2.530184        -0.237592        -0.644354
 H         0.743190         0.056426         1.394804
 H        -0.658138         0.483853         0.399867
 H        -0.172609        -1.168888         0.330653
 H         0.468041        -0.757475        -2.654944
 H        -0.423045         0.636222        -2.280479
 H         0.615777         1.171355        -4.977503
 H         2.165584         2.231968        -4.875494
 H         3.442613         2.091297        -2.377486
 H         2.035769         2.938664        -1.992175
 H         2.484497         1.756494         0.280937
