19
Iteration:  3505
 C         0.229019        -0.258345         0.386657
 C         1.103848         0.244831        -0.700582
 C         0.617971         0.165493        -2.169531
 C         1.655582         0.943421        -2.975819
 C         1.405948         1.491766        -4.347662
 O         2.359632         0.372389        -4.106739
 C         2.566894         1.765449        -2.030099
 C         2.229179         1.243386        -0.656987
 O         2.470973        -0.096801        -0.441698
 H         0.449322        -1.260200         0.404288
 H         0.478082         0.264394         1.355241
 H        -0.896164        -0.069481         0.112505
 H         0.430161        -0.790029        -2.643372
 H        -0.360627         0.659625        -2.471104
 H         0.445934         1.285056        -4.844606
 H         1.883578         2.407007        -4.704639
 H         3.577081         1.487706        -2.279570
 H         2.632372         2.844501        -2.015300
 H         2.220801         1.929311         0.177016
