19
Iteration:  4724
 C         0.249016        -0.224411         0.508236
 C         1.049277         0.172872        -0.690665
 C         0.558613         0.116536        -2.146726
 C         1.608079         1.024003        -3.031811
 C         1.516847         1.475424        -4.464762
 O         2.377739         0.397440        -4.056949
 C         2.481866         1.865806        -1.896170
 C         2.207000         1.274558        -0.595890
 O         2.532533        -0.170448        -0.685010
 H         0.768223        -0.050632         1.533119
 H        -0.711911         0.233882         0.519514
 H         0.066712        -1.279326         0.585506
 H         0.549749        -0.888484        -2.705275
 H        -0.560396         0.466056        -2.096282
 H         0.644833         1.276916        -5.166076
 H         2.156198         2.302936        -4.901347
 H         3.547438         1.590466        -2.257094
 H         2.346787         2.931594        -1.819690
 H         2.429698         1.649542         0.369898
