19
Iteration:  3180charge 0 multiplicity 1
 C         0.064713        -0.108291         0.331485
 C         1.207013         0.239609        -0.640371
 C         0.773026         0.004586        -2.164652
 C         1.626308         0.938768        -2.963297
 C         1.270039         1.433270        -4.303678
 O         2.366725         0.481134        -4.125871
 C         2.612587         1.809922        -2.019794
 C         2.254493         1.264861        -0.669367
 O         2.499978        -0.175975        -0.476850
 H        -0.542320        -0.829520        -0.279465
 H         0.438431        -0.468828         1.336678
 H        -0.593435         0.684626         0.384682
 H         0.891912        -1.138885        -2.222104
 H        -0.295557         0.432432        -2.257102
 H         0.353091         0.990460        -4.714636
 H         1.526346         2.411573        -4.757760
 H         3.625640         1.708502        -2.418937
 H         2.227328         2.792533        -2.103339
 H         2.659258         1.863793         0.217337
