19
Iteration:   278
 C        -0.075132         0.244996         0.049049
 C         1.192331         0.162386        -0.765619
 C         1.144991        -0.358548        -2.302580
 C         1.903262         0.802004        -3.028041
 C         1.112913         1.802388        -3.708573
 O         1.882683         0.883023        -4.451317
 C         3.074320         1.183720        -2.101288
 C         2.267428         1.246320        -0.825769
 O         2.289113        -0.202913         0.015850
 H        -0.126007        -0.492954         0.890649
 H        -0.144931         1.131939         0.518770
 H        -0.968156         0.400032        -0.827906
 H         1.608437        -1.357956        -2.390564
 H         0.110532        -0.324352        -2.636602
 H         0.028258         1.758565        -3.931725
 H         1.592726         2.833623        -3.512306
 H         3.698183         0.239764        -2.136176
 H         3.565804         2.126485        -2.273199
 H         2.281279         2.131420        -0.153960
