19
Iteration:  4245charge 0 multiplicity 1
 C         0.198138        -0.243267         0.348074
 C         1.139672         0.143102        -0.776693
 C         0.651157         0.158022        -2.187265
 C         1.671480         1.002663        -2.994416
 C         1.395719         1.396361        -4.343600
 O         2.371366         0.371091        -4.166233
 C         2.498206         1.885453        -1.987543
 C         2.168396         1.300622        -0.624304
 O         2.570319        -0.161766        -0.379033
 H        -0.182929        -1.298543         0.418835
 H         0.768850        -0.010080         1.316800
 H        -0.587211         0.421509         0.277901
 H         0.288750        -0.737300        -2.653140
 H        -0.271270         0.819408        -2.169314
 H         0.379423         1.131797        -4.764448
 H         1.701664         2.426897        -4.654079
 H         3.658268         1.829940        -2.081260
 H         2.108162         2.895362        -2.057152
 H         2.254532         1.771185         0.260674
