19
Iteration:  3693
 C         0.106787        -0.289171         0.360911
 C         1.130359         0.278242        -0.676321
 C         0.662524         0.144730        -2.126979
 C         1.675605         0.921352        -2.981439
 C         1.386502         1.442627        -4.368350
 O         2.348299         0.477721        -4.114001
 C         2.597342         1.736549        -2.091319
 C         2.253963         1.309310        -0.634385
 O         2.478412        -0.118368        -0.436146
 H         0.261471        -1.340391         0.432786
 H         0.146177         0.271096         1.401599
 H        -1.058445        -0.026163         0.235455
 H         0.721281        -0.865389        -2.436966
 H        -0.400919         0.339298        -2.245614
 H         0.511675         1.085733        -4.902992
 H         1.792234         2.384860        -4.755344
 H         3.641955         1.495089        -2.267390
 H         2.634918         2.796140        -2.236841
 H         2.616718         1.911936         0.177219
