19
Iteration:  1383
 C         0.076071         0.075616         0.362882
 C         1.133643         0.144188        -0.665998
 C         0.847573        -0.163225        -2.167182
 C         1.696981         0.870581        -3.093320
 C         1.137240         1.613866        -4.244343
 O         2.320132         0.744928        -4.347383
 C         2.764785         1.437363        -2.126063
 C         2.167608         1.187029        -0.636826
 O         2.491195        -0.117821        -0.138275
 H         0.305761         0.677305         1.201728
 H        -0.749819         0.594781        -0.159045
 H        -0.193266        -0.955627         0.720467
 H         1.260953        -1.158351        -2.412873
 H        -0.194670        -0.049879        -2.536563
 H         0.250774         1.236110        -4.793441
 H         1.395685         2.664351        -4.370391
 H         3.586346         0.710209        -2.309814
 H         2.951237         2.521214        -2.273533
 H         2.369330         2.068836        -0.057103
