19
Iteration:  2068
 C         0.138619        -0.094054         0.261258
 C         1.179799         0.235069        -0.739926
 C         0.860247        -0.079489        -2.229238
 C         1.725214         0.882421        -2.974407
 C         1.252923         1.510747        -4.220812
 O         2.299828         0.484567        -4.226298
 C         2.580532         1.649874        -2.057687
 C         2.154301         1.322634        -0.636244
 O         2.510406        -0.041075        -0.265186
 H        -0.583486         0.801434         0.490168
 H        -0.485474        -0.902775        -0.107854
 H         0.518798        -0.427310         1.203339
 H         0.927783        -1.123772        -2.608380
 H        -0.281555         0.023252        -2.168403
 H         0.266375         1.198959        -4.596621
 H         1.604213         2.460345        -4.647383
 H         3.687300         1.393630        -1.979378
 H         2.489613         2.703452        -2.428892
 H         2.048995         1.976887         0.257588
