19
Iteration:  4798
 C         0.182342        -0.320125         0.404872
 C         1.138082         0.145414        -0.702075
 C         0.498260         0.393682        -2.049703
 C         1.596053         1.173040        -2.990471
 C         1.466570         1.238209        -4.433929
 O         2.482885         0.363998        -3.844095
 C         2.413502         2.042515        -1.952167
 C         2.307528         1.210896        -0.698270
 O         2.533546        -0.275570        -0.822665
 H         0.041480         0.369862         1.332924
 H        -0.819074        -0.533089        -0.002266
 H         0.390348        -1.330058         0.732176
 H         0.189703        -0.574546        -2.497916
 H        -0.306313         1.116384        -1.913597
 H         0.643769         0.620038        -4.735691
 H         1.840926         2.056873        -5.041525
 H         3.442085         1.926534        -2.172898
 H         2.146232         3.118211        -1.872915
 H         2.797679         1.531106         0.279059
