19
Iteration:  1660
 C         0.104327         0.018859         0.316514
 C         1.117401         0.237845        -0.750503
 C         0.889030        -0.134672        -2.169438
 C         1.677644         0.919979        -2.950972
 C         1.251734         1.600286        -4.190942
 O         2.229117         0.536914        -4.240977
 C         2.640492         1.564083        -2.055210
 C         2.275644         1.237920        -0.696522
 O         2.465900        -0.147827        -0.315763
 H         0.470382        -0.177928         1.231958
 H        -0.333491         0.977659         0.436268
 H        -0.659458        -0.765373        -0.125271
 H         1.281475        -1.089081        -2.587318
 H        -0.172215        -0.123322        -2.441424
 H         0.245381         1.508713        -4.617319
 H         1.769353         2.524878        -4.386654
 H         3.712774         1.258458        -2.204344
 H         2.707186         2.693816        -2.179922
 H         2.229817         1.956142         0.132633
