19
Iteration:  2759
 C         0.095660        -0.140618         0.443639
 C         1.115708         0.272619        -0.710307
 C         0.739058        -0.047164        -2.149375
 C         1.707248         0.958482        -3.038036
 C         1.379377         1.618788        -4.315699
 O         2.276899         0.432077        -4.239072
 C         2.553558         1.712735        -2.061552
 C         2.299026         1.278334        -0.600860
 O         2.464582        -0.167878        -0.400546
 H         0.732038        -0.814632         1.131438
 H        -0.262438         0.766449         0.992926
 H        -0.729434        -0.589100         0.032129
 H         0.841638        -1.028499        -2.575929
 H        -0.275455         0.110171        -2.213900
 H         0.444228         1.351588        -4.822082
 H         1.940737         2.480461        -4.647057
 H         3.573698         1.354513        -2.223249
 H         2.410013         2.826960        -2.116637
 H         2.632717         1.799446         0.243366
