19
Iteration:  2684
 C        -0.030321        -0.015678         0.316233
 C         1.197662         0.209447        -0.631242
 C         0.863885        -0.065384        -2.154731
 C         1.674352         0.973127        -3.014937
 C         1.232374         1.532499        -4.322146
 O         2.277272         0.518103        -4.252772
 C         2.598982         1.718867        -2.044409
 C         2.317531         1.169563        -0.641142
 O         2.550483        -0.163643        -0.302581
 H        -0.229097        -1.081396         0.277139
 H         0.281743         0.372972         1.317683
 H        -0.927647         0.482256        -0.059754
 H         1.116845        -1.147762        -2.403800
 H        -0.155188         0.068264        -2.451326
 H         0.240447         1.189775        -4.670034
 H         1.539399         2.523744        -4.656157
 H         3.589344         1.492501        -2.343119
 H         2.385660         2.806865        -2.105854
 H         2.515848         1.675247         0.275816
