19
Iteration:  4582charge 0 multiplicity 1
 C         0.126609        -0.162598         0.411114
 C         1.089917         0.142261        -0.687733
 C         0.842081        -0.086349        -2.198887
 C         1.704104         0.993296        -2.948162
 C         1.298232         1.437301        -4.308137
 O         2.321228         0.512139        -4.295563
 C         2.668118         1.751627        -1.965953
 C         2.113399         1.336691        -0.638419
 O         2.522928        -0.046569        -0.420443
 H        -0.170841        -1.272841         0.286767
 H         0.465995         0.103435         1.417953
 H        -0.845195         0.234906         0.285066
 H         1.054135        -1.060206        -2.653331
 H        -0.214849         0.221040        -2.272440
 H         0.260616         1.119199        -4.615678
 H         1.313916         2.514426        -4.664222
 H         3.710620         1.283046        -2.209791
 H         2.547680         2.868272        -1.997036
 H         2.118011         1.920804         0.292148
