19
Iteration:  1178charge 0 multiplicity 1
 C         0.286972        -0.330000         0.358831
 C         1.127298         0.222592        -0.723609
 C         0.462303         0.504970        -2.135744
 C         1.582043         1.177814        -2.926105
 C         1.505957         1.199312        -4.496997
 O         2.359297         0.241381        -3.891254
 C         2.465428         1.942690        -1.985900
 C         2.326473         1.265190        -0.614342
 O         2.544805        -0.256273        -0.625216
 H         0.535772        -0.296546         1.336747
 H        -0.751008         0.083407         0.224425
 H         0.164398        -1.503385         0.187188
 H         0.036576        -0.292633        -2.769801
 H        -0.302569         1.331179        -2.074328
 H         0.596759         0.759787        -4.890633
 H         1.939374         1.972117        -5.095677
 H         3.483101         1.924645        -2.362602
 H         2.290435         3.022058        -1.957984
 H         2.320315         1.761781         0.341312
