19
Iteration:   125charge 0 multiplicity 1
 C         0.238968        -0.209822         0.430183
 C         1.161140         0.201799        -0.758526
 C         0.534352         0.533118        -2.143999
 C         1.646377         1.111765        -2.926769
 C         1.617760         1.448470        -4.315405
 O         2.271633         0.202280        -3.878661
 C         2.446307         1.836751        -1.954506
 C         2.321618         1.102592        -0.646759
 O         2.438158        -0.348100        -0.852114
 H        -0.447788        -0.988402         0.016587
 H         0.700336        -0.492479         1.307185
 H        -0.461920         0.726779         0.697802
 H         0.040454        -0.204314        -2.818174
 H        -0.178593         1.368380        -2.074528
 H         0.607802         1.153579        -4.791691
 H         2.205915         2.354092        -4.688626
 H         3.533207         1.975739        -2.232943
 H         2.185316         2.898423        -1.846590
 H         2.709859         1.547157         0.291831
