19
Iteration:  3834charge 0 multiplicity 1
 C         0.328363        -0.278575         0.315580
 C         1.070044         0.297295        -0.780908
 C         0.555016         0.359553        -2.178724
 C         1.681064         1.062102        -2.914184
 C         1.512935         1.167186        -4.340507
 O         2.446608         0.248074        -3.817957
 C         2.338338         1.960844        -1.918469
 C         2.149555         1.219570        -0.594012
 O         2.550555        -0.154214        -0.874063
 H        -0.541192        -0.925668         0.199200
 H         1.149208        -0.640659         1.098935
 H         0.007723         0.540525         0.954300
 H         0.057645        -0.475307        -2.643641
 H        -0.401191         1.024107        -1.956559
 H         0.555889         0.830963        -4.739983
 H         1.934334         2.011992        -4.883748
 H         3.334626         2.346284        -2.159682
 H         1.780908         2.978818        -1.811123
 H         2.401752         1.663858         0.325284
