19
Iteration:  3902
 C         0.365157        -0.304691         0.392699
 C         1.084966         0.210016        -0.840707
 C         0.528018         0.273123        -2.195026
 C         1.616708         1.031033        -2.942311
 C         1.540563         1.359587        -4.332848
 O         2.352661         0.222736        -3.860287
 C         2.436533         1.975562        -1.970229
 C         2.174138         1.279155        -0.635198
 O         2.524657        -0.154744        -0.713531
 H         0.146924        -1.334716         0.396980
 H         0.918633         0.041713         1.198823
 H        -0.691350         0.236001         0.488981
 H         0.105953        -0.624164        -2.524835
 H        -0.358432         1.054286        -2.253200
 H         0.676162         0.999703        -4.849973
 H         2.047435         2.223422        -4.704458
 H         3.527156         2.094825        -2.152626
 H         2.005514         2.999606        -2.160068
 H         2.484104         1.648155         0.406404
