19
Iteration:  3783
 C         0.342398        -0.155636         0.417024
 C         1.100233         0.278548        -0.721536
 C         0.530481         0.231532        -2.174910
 C         1.516362         0.989624        -2.991865
 C         1.582634         1.399602        -4.401935
 O         2.447458         0.342501        -3.828344
 C         2.316198         1.951180        -2.005842
 C         2.284613         1.173028        -0.747435
 O         2.475966        -0.267690        -0.671995
 H         0.001756        -1.133989         0.147334
 H         0.836573        -0.243224         1.301739
 H        -0.485704         0.565913         0.802802
 H         0.472999        -0.813398        -2.488367
 H        -0.484527         0.530283        -2.046957
 H         0.908238         0.938605        -5.110037
 H         2.033461         2.339310        -4.720591
 H         3.326725         2.106763        -2.381500
 H         1.839236         2.891493        -1.902932
 H         2.553348         1.523412         0.304108
