19
Iteration:  1262
 C         0.165120         0.068965         0.513030
 C         1.172040         0.191045        -0.703460
 C         0.695462         0.008997        -2.260359
 C         1.651869         1.012264        -3.030771
 C         1.250000         1.457609        -4.384544
 O         2.435713         0.514077        -4.145566
 C         2.596734         1.715643        -1.998555
 C         2.225166         1.168910        -0.684428
 O         2.435283        -0.286412        -0.390081
 H         0.855989         0.014314         1.404192
 H        -0.427441         0.968730         0.707153
 H        -0.406172        -0.921632         0.388935
 H         0.863998        -0.983029        -2.748127
 H        -0.345756         0.318100        -2.519736
 H         0.415617         1.085109        -5.036222
 H         1.553746         2.479571        -4.627889
 H         3.688930         1.646461        -2.327793
 H         2.178720         2.753077        -1.836520
 H         2.462032         1.831009         0.139615
