19
Iteration:  2950
 C         0.274004        -0.300464         0.337714
 C         1.139117         0.238900        -0.735826
 C         0.502285         0.520503        -2.123534
 C         1.631674         1.171445        -2.957934
 C         1.483192         1.172624        -4.375471
 O         2.396974         0.312768        -3.747770
 C         2.477502         1.955591        -2.004391
 C         2.218999         1.197621        -0.647914
 O         2.506174        -0.268307        -0.816339
 H         0.351606         0.135305         1.347361
 H        -0.765354        -0.392626         0.000054
 H         0.560938        -1.446243         0.372719
 H        -0.079155        -0.302489        -2.580356
 H        -0.256661         1.294392        -2.112299
 H         0.508926         0.707720        -4.655529
 H         1.928145         1.876423        -5.084301
 H         3.531401         1.754991        -2.383382
 H         2.184742         3.051381        -1.718217
 H         2.717639         1.455390         0.312056
