19
Iteration:  3174
 C         0.111675        -0.130660         0.367462
 C         1.139315         0.264392        -0.604178
 C         0.730946         0.001069        -2.194318
 C         1.675190         0.931750        -2.995295
 C         1.270035         1.435984        -4.306514
 O         2.367637         0.503757        -4.147836
 C         2.612246         1.799980        -2.056959
 C         2.239003         1.261757        -0.648368
 O         2.508368        -0.182021        -0.455457
 H        -0.439144        -0.962269        -0.161560
 H         0.411482        -0.428387         1.382386
 H        -0.667889         0.732554         0.496581
 H         0.775450        -1.043458        -2.300863
 H        -0.305540         0.202748        -2.291246
 H         0.359940         1.024345        -4.750802
 H         1.603070         2.381399        -4.724585
 H         3.722536         1.759720        -2.226216
 H         2.478457         2.935823        -2.311253
 H         2.559394         1.800974         0.183212
