19
Iteration:  3447charge 0 multiplicity 1
 C         0.202012        -0.106999         0.331390
 C         1.147764         0.272880        -0.697223
 C         0.551588         0.244163        -2.116827
 C         1.557522         1.018566        -2.927507
 C         1.501940         1.295568        -4.325279
 O         2.415421         0.368878        -3.902904
 C         2.365458         1.917776        -2.005990
 C         2.349561         1.192100        -0.677039
 O         2.533033        -0.287185        -0.719712
 H        -0.318000        -1.175871         0.064061
 H         0.707346        -0.323035         1.226723
 H        -0.570947         0.601132         0.462575
 H         0.758063        -0.720831        -2.565799
 H        -0.410302         0.768524        -2.344680
 H         0.606894         0.966507        -4.854299
 H         2.016493         2.193744        -4.707707
 H         3.362063         2.176412        -2.393295
 H         1.710644         2.761385        -1.768600
 H         2.707669         1.751037         0.248743
