19
Iteration:  2601charge 0 multiplicity 1
 C         0.091086        -0.110986         0.351189
 C         1.150697         0.265068        -0.665752
 C         0.806804        -0.097504        -2.130493
 C         1.664273         0.936576        -3.079017
 C         1.266099         1.547378        -4.322021
 O         2.365486         0.474510        -4.290330
 C         2.542731         1.660644        -2.047606
 C         2.219830         1.315076        -0.624843
 O         2.508969        -0.074937        -0.291886
 H        -1.014330        -0.218551         0.175970
 H         0.300099        -1.118254         0.682478
 H         0.272912         0.505504         1.373570
 H         1.055775        -1.127005        -2.192505
 H        -0.243507         0.108078        -2.562050
 H         0.372516         1.114787        -4.747810
 H         1.588229         2.554787        -4.515495
 H         3.565192         1.255078        -2.417045
 H         2.722462         2.738257        -2.170964
 H         2.342603         1.927437         0.292687
