19
Iteration:  1129charge 0 multiplicity 1
 C         0.359713        -0.394049         0.327360
 C         1.061081         0.324579        -0.750517
 C         0.404897         0.497508        -2.131713
 C         1.651326         1.118358        -2.920103
 C         1.685765         1.260162        -4.392882
 O         2.261756         0.094754        -3.680911
 C         2.414991         1.983706        -1.961024
 C         2.303821         1.288654        -0.638013
 O         2.450994        -0.165253        -0.946981
 H         0.968951        -0.344229         1.340770
 H        -0.588306         0.027249         0.536216
 H         0.263997        -1.398786         0.220951
 H         0.142226        -0.540021        -2.426899
 H        -0.545883         1.054870        -2.003533
 H         0.748410         1.098905        -4.961779
 H         2.468683         1.905399        -4.921677
 H         3.510407         2.236390        -2.165145
 H         1.973545         3.054171        -1.861462
 H         2.917586         1.403011         0.270943
