19
Iteration:  3872
 C         0.204079        -0.419905         0.387056
 C         1.137026         0.284888        -0.698396
 C         0.537973         0.324333        -2.055553
 C         1.443119         1.177051        -3.005211
 C         1.680971         1.250371        -4.497674
 O         2.314272         0.256717        -3.799058
 C         2.395978         1.986643        -2.011288
 C         2.282383         1.282269        -0.653783
 O         2.591464        -0.147524        -0.735493
 H        -0.200164        -1.310246        -0.129648
 H         0.734235        -0.789378         1.199827
 H        -0.552536         0.331126         0.748371
 H         0.403351        -0.742326        -2.397928
 H        -0.302928         0.905419        -1.916921
 H         0.867471         0.879937        -5.151535
 H         2.228802         2.085177        -4.979164
 H         3.449962         1.983842        -2.327576
 H         1.892233         2.912695        -2.033218
 H         2.659833         1.691420         0.344339
