19
Iteration:  2644charge 0 multiplicity 1
 C         0.101809         0.043720         0.321952
 C         1.072057         0.186834        -0.812389
 C         0.930225        -0.134003        -2.249650
 C         1.766895         0.918434        -2.952751
 C         1.175828         1.527171        -4.139367
 O         2.306068         0.458548        -4.202000
 C         2.578371         1.775582        -2.038427
 C         2.203154         1.210007        -0.638740
 O         2.517881        -0.140920        -0.398160
 H        -0.818988        -0.486058         0.213084
 H         0.465803        -0.435818         1.197370
 H        -0.170195         1.141788         0.666021
 H         1.148822        -1.105118        -2.649316
 H        -0.227545        -0.080110        -2.357765
 H         0.175716         1.203689        -4.397541
 H         1.631358         2.377338        -4.605422
 H         3.648182         1.515284        -2.052043
 H         2.501884         2.846098        -2.128659
 H         2.374054         1.926812         0.208677
