19
Iteration:  3628charge 0 multiplicity 1
 C         0.029530         0.047701         0.400441
 C         1.173893         0.178446        -0.703770
 C         0.832839        -0.083738        -2.206821
 C         1.687865         0.953438        -2.972140
 C         1.302997         1.469517        -4.313129
 O         2.342673         0.508332        -4.177484
 C         2.500438         1.817218        -2.023383
 C         2.267378         1.200191        -0.661993
 O         2.518771        -0.232463        -0.401793
 H        -0.569665        -0.736943         0.085857
 H         0.671199        -0.213037         1.312974
 H        -0.755089         0.956113         0.443422
 H         1.250521        -1.061826        -2.539086
 H        -0.280971        -0.103791        -2.381507
 H         0.445792         1.126138        -4.888744
 H         1.623127         2.510603        -4.460602
 H         3.587916         1.727991        -2.204060
 H         2.269634         2.858758        -2.152789
 H         2.289464         1.847032         0.206916
