19
Iteration:  3970charge 0 multiplicity 1
 C         0.169663        -0.067301         0.336069
 C         1.172701         0.180785        -0.681205
 C         0.677819         0.107070        -2.213534
 C         1.595578         1.059210        -2.976025
 C         1.383932         1.447479        -4.350575
 O         2.375072         0.422449        -3.981081
 C         2.428033         1.834958        -2.073104
 C         2.249568         1.172555        -0.665995
 O         2.561365        -0.259176        -0.476653
 H         0.237209        -1.147762         0.511555
 H         0.453916         0.594547         1.131747
 H        -0.917377         0.183837         0.036037
 H         0.919607        -0.989248        -2.541806
 H        -0.445377         0.375860        -2.291947
 H         0.539338         0.899693        -4.788735
 H         1.751204         2.467724        -4.624916
 H         3.461942         1.803055        -2.570052
 H         2.144448         2.907462        -1.895608
 H         2.598465         1.792120         0.237646
