19
Iteration:   392
 C        -0.084968         0.361105         0.063056
 C         1.170955         0.194769        -0.791937
 C         1.045423        -0.281590        -2.172609
 C         1.769827         0.825278        -2.970588
 C         1.116359         1.744045        -3.902342
 O         1.987192         0.767449        -4.384544
 C         2.949403         1.357684        -2.080960
 C         2.325855         1.088282        -0.652536
 O         2.424349        -0.266034        -0.187410
 H        -0.709343        -0.436596        -0.295081
 H         0.064013         0.026592         1.198907
 H        -0.602963         1.289118         0.089917
 H         1.714950        -1.148066        -2.145748
 H         0.040859        -0.523570        -2.597912
 H         0.114709         1.721778        -4.407002
 H         1.608779         2.717026        -3.800632
 H         3.857245         0.814971        -2.265767
 H         3.300163         2.445765        -2.233512
 H         2.351795         1.917655         0.086150
