19
Iteration:  4669charge 0 multiplicity 1
 C         0.101985        -0.133371         0.234607
 C         1.168406         0.194688        -0.739132
 C         0.753427         0.079489        -2.159310
 C         1.715035         1.019017        -2.948831
 C         1.302659         1.389862        -4.285712
 O         2.288369         0.393829        -4.146031
 C         2.541668         1.927967        -1.897756
 C         2.258133         1.209151        -0.581701
 O         2.568471        -0.174265        -0.508413
 H         0.363337        -0.898661         1.071130
 H        -0.184285         0.807802         0.690823
 H        -0.750359        -0.566163        -0.271962
 H         0.968679        -0.963597        -2.617676
 H        -0.333200         0.084940        -2.472529
 H         0.332201         0.870055        -4.548753
 H         1.434337         2.412019        -4.793361
 H         3.633645         2.069817        -2.269683
 H         2.199258         2.975911        -1.790512
 H         2.388811         1.773042         0.391183
