19
Iteration:   434charge 0 multiplicity 1
 C         0.039122         0.105847         0.374568
 C         1.104270         0.230715        -0.740148
 C         0.819644        -0.068119        -2.210337
 C         1.755015         0.898934        -2.993710
 C         1.259721         1.720179        -4.147218
 O         2.181099         0.654614        -4.365271
 C         2.910285         1.394117        -1.987564
 C         2.214287         1.193910        -0.700398
 O         2.427283        -0.323358        -0.311242
 H        -0.390302        -0.844242         0.464945
 H         0.653318         0.424407         1.287759
 H        -0.778731         0.922446         0.300106
 H         0.952808        -1.128673        -2.480155
 H        -0.241377         0.247033        -2.330414
 H         0.211228         1.487229        -4.581558
 H         1.550045         2.804278        -4.226320
 H         3.867552         0.972269        -2.194847
 H         3.159177         2.510994        -2.234448
 H         1.902085         1.913423         0.055276
