19
Iteration:  2888charge 0 multiplicity 1
 C         0.367295        -0.243714         0.416449
 C         1.131676         0.161422        -0.823181
 C         0.497054         0.427397        -2.135411
 C         1.529892         1.069171        -2.907391
 C         1.674096         1.375658        -4.409808
 O         2.262054         0.187844        -3.858715
 C         2.435898         1.890221        -1.935607
 C         2.188892         1.184561        -0.614257
 O         2.515415        -0.197283        -0.808012
 H         0.423233         0.658709         1.170939
 H        -0.722184        -0.352934         0.183086
 H         0.702971        -1.101769         0.844927
 H         0.201676        -0.481488        -2.657926
 H        -0.315328         1.252906        -2.090998
 H         0.858700         1.248469        -5.132677
 H         2.327011         2.209370        -4.681650
 H         3.507652         2.181596        -2.098406
 H         2.101411         2.888647        -1.884698
 H         2.423909         1.576688         0.304828
