19
Iteration:  4603charge 0 multiplicity 1
 C         0.219732        -0.142829         0.449592
 C         1.077597         0.178286        -0.722410
 C         0.792531        -0.017087        -2.231363
 C         1.808640         0.808913        -3.067063
 C         1.260599         1.563142        -4.240438
 O         2.398566         0.569546        -4.284025
 C         2.507052         1.702812        -2.030306
 C         2.123872         1.293090        -0.664774
 O         2.491039        -0.107902        -0.320640
 H         0.213346        -1.225445         0.822350
 H         0.448783         0.589707         1.244164
 H        -0.825460        -0.093478         0.322829
 H         0.797730        -1.138965        -2.343915
 H        -0.299671         0.244029        -2.315296
 H         0.387406         1.181137        -4.830489
 H         1.437432         2.645113        -4.610373
 H         3.654643         1.421206        -2.058831
 H         2.311153         2.757434        -2.361069
 H         2.018137         1.922323         0.265413
