19
Iteration:  4136
 C         0.033058         0.019790         0.355515
 C         1.207606         0.146667        -0.664483
 C         0.841452        -0.110153        -2.126560
 C         1.690562         0.974612        -3.018855
 C         1.194250         1.521556        -4.390368
 O         2.337907         0.575758        -4.182566
 C         2.542464         1.732634        -2.005825
 C         2.149581         1.195678        -0.652973
 O         2.607459        -0.194417        -0.352945
 H        -0.200303        -1.083114         0.356979
 H         0.263555         0.407632         1.417392
 H        -0.889351         0.430930         0.099430
 H         1.219489        -1.043780        -2.500949
 H        -0.117511         0.201863        -2.497226
 H         0.393434         1.084893        -5.085517
 H         1.627334         2.534423        -4.621811
 H         3.606339         1.287916        -2.202043
 H         2.554382         2.818036        -2.085125
 H         2.362612         1.813375         0.117675
