19
Iteration:  3660
 C         0.160061        -0.056396         0.333257
 C         1.124095         0.178460        -0.799222
 C         0.763904         0.003894        -2.224884
 C         1.799030         0.906654        -2.963875
 C         1.409191         1.496262        -4.277079
 O         2.202982         0.388686        -4.202469
 C         2.539377         1.805047        -1.955323
 C         2.102512         1.296851        -0.596182
 O         2.569215        -0.145890        -0.423360
 H        -0.205653        -1.087324         0.352592
 H         0.740861        -0.034850         1.386675
 H        -0.849257         0.636483         0.361692
 H         1.050571        -0.976259        -2.541473
 H        -0.301203         0.227424        -2.395810
 H         0.437894         1.308147        -4.729496
 H         1.894188         2.441365        -4.549865
 H         3.588679         1.624078        -1.809350
 H         2.264321         2.827614        -2.170715
 H         2.098050         1.897371         0.287025
