19
Iteration:  3263
 C         0.324839        -0.182596         0.549988
 C         1.036572         0.242867        -0.724383
 C         0.560721         0.098778        -2.142959
 C         1.562037         0.929897        -2.965442
 C         1.500526         1.426379        -4.387369
 O         2.495723         0.463345        -4.019731
 C         2.490793         1.771945        -2.052335
 C         2.232212         1.247228        -0.700233
 O         2.402837        -0.124265        -0.641022
 H         0.449539        -1.243934         0.611624
 H         0.655070         0.118074         1.507886
 H        -0.828696         0.226000         0.557545
 H         0.450245        -0.933553        -2.392204
 H        -0.417318         0.478059        -2.303714
 H         0.670497         1.107026        -5.044957
 H         1.904340         2.400599        -4.658335
 H         3.539383         1.835882        -2.365333
 H         2.029937         2.834386        -2.183678
 H         2.529306         1.660389         0.294970
