19
Iteration:  4199
 C         0.072451        -0.165416         0.421862
 C         1.085918         0.209110        -0.611307
 C         0.826492        -0.056069        -2.174753
 C         1.687332         1.003967        -2.945930
 C         1.393589         1.513269        -4.295218
 O         2.261583         0.413269        -4.231248
 C         2.600753         1.788730        -1.970913
 C         2.219588         1.328887        -0.627378
 O         2.470923        -0.101390        -0.570272
 H         0.463901        -1.160099         0.656318
 H         0.060264         0.416161         1.412294
 H        -0.866343        -0.260998        -0.140562
 H         1.210619        -1.003874        -2.466979
 H        -0.340277        -0.084639        -2.434922
 H         0.454521         1.346399        -4.822685
 H         1.920731         2.414092        -4.620770
 H         3.614014         1.365905        -2.293889
 H         2.413056         2.884594        -1.958237
 H         2.561541         1.948787         0.316906
