19
Iteration:   726
 C        -0.022653         0.191061         0.242282
 C         1.150249         0.195918        -0.689179
 C         0.921388        -0.138542        -2.127115
 C         1.714488         0.958786        -2.932862
 C         1.228644         1.578872        -4.210249
 O         2.205347         0.632764        -4.317436
 C         2.704703         1.552793        -2.006375
 C         2.294760         1.108716        -0.636391
 O         2.468312        -0.262748        -0.381523
 H        -0.408061         1.194893         0.483291
 H        -0.814577        -0.311210        -0.180907
 H         0.336339        -0.274399         1.215134
 H         1.374665        -1.157337        -2.205101
 H        -0.153928        -0.192072        -2.404916
 H         0.230492         1.467725        -4.594961
 H         1.614366         2.554153        -4.328556
 H         3.796532         1.327636        -2.325629
 H         2.750132         2.641822        -1.994011
 H         2.443549         1.776107         0.217075
