19
Iteration:  2794charge 0 multiplicity 1
 C         0.122631        -0.043144         0.288186
 C         1.233660         0.132525        -0.723333
 C         0.703619         0.096309        -2.182956
 C         1.676042         1.038747        -2.957342
 C         1.293943         1.484201        -4.337862
 O         2.316936         0.397619        -4.096683
 C         2.554523         1.848119        -1.965422
 C         2.225918         1.176833        -0.645236
 O         2.548954        -0.260236        -0.460550
 H         0.468762        -0.251998         1.234199
 H        -0.338960         0.942613         0.407025
 H        -0.672561        -0.880754         0.215414
 H         0.630475        -0.897288        -2.630514
 H        -0.191426         0.577040        -2.003751
 H         0.310699         1.155382        -4.712712
 H         1.695697         2.330820        -4.897408
 H         3.584819         1.698078        -2.189651
 H         2.431039         2.940821        -2.175516
 H         2.359336         1.697425         0.339803
