19
Iteration:  4140charge 0 multiplicity 1
 C         0.067210         0.004326         0.336442
 C         1.190394         0.117644        -0.675318
 C         0.821927        -0.074200        -2.122263
 C         1.695052         0.967604        -3.012233
 C         1.188418         1.512676        -4.389093
 O         2.350407         0.587141        -4.191690
 C         2.553641         1.704062        -2.003191
 C         2.137733         1.222396        -0.638896
 O         2.607582        -0.202693        -0.334308
 H        -0.180300        -1.061293         0.588345
 H         0.362940         0.496547         1.222645
 H        -0.921680         0.421592        -0.005213
 H         1.078609        -1.133041        -2.545440
 H        -0.149259         0.220402        -2.476765
 H         0.444773         1.116888        -5.061878
 H         1.560591         2.490521        -4.684297
 H         3.521698         1.459431        -2.335892
 H         2.631100         2.788752        -2.082938
 H         2.325948         1.916164         0.241166
