19
Iteration:   136
 C         0.239025        -0.085411         0.368056
 C         1.126577         0.241329        -0.716902
 C         0.500496         0.404198        -2.106842
 C         1.631846         1.055263        -2.919940
 C         1.553153         1.465097        -4.351615
 O         2.309979         0.313576        -3.980735
 C         2.530934         1.792116        -1.913343
 C         2.311162         1.096900        -0.631001
 O         2.438170        -0.367639        -0.789402
 H        -0.503761        -0.831381        -0.014128
 H         0.692627        -0.589923         1.125296
 H        -0.285814         0.896892         0.755016
 H         0.377692        -0.594334        -2.575879
 H        -0.444404         0.945928        -1.959125
 H         0.657123         1.288420        -5.055456
 H         2.106626         2.421587        -4.617087
 H         3.624386         1.757413        -2.175834
 H         2.118574         2.802626        -1.810338
 H         2.816438         1.442776         0.286561
