19
Iteration:   648charge 0 multiplicity 1
 C         0.160487        -0.212768         0.437415
 C         1.056633         0.299291        -0.704834
 C         0.585493         0.338576        -2.151396
 C         1.671086         1.030957        -2.902103
 C         1.505200         1.486792        -4.346049
 O         2.315433         0.328244        -4.000293
 C         2.638871         1.757674        -2.004933
 C         2.311228         1.139860        -0.690117
 O         2.414817        -0.237084        -0.716444
 H        -0.996244        -0.195745         0.220569
 H         0.524109        -1.149994         0.685140
 H         0.199136         0.385525         1.333725
 H         0.397221        -0.718091        -2.462359
 H        -0.357443         0.898175        -1.971303
 H         0.569443         1.131765        -4.699891
 H         1.870851         2.367877        -4.785609
 H         3.759940         1.666891        -2.342255
 H         2.412532         2.832966        -2.073834
 H         2.637403         1.553926         0.284780
