19
Iteration:   120
 C         0.220783        -0.239379         0.420985
 C         1.137984         0.197523        -0.759618
 C         0.522397         0.573105        -2.167084
 C         1.654607         1.119382        -2.934516
 C         1.615354         1.425937        -4.312665
 O         2.266617         0.185029        -3.844865
 C         2.484838         1.894522        -1.945058
 C         2.322093         1.092905        -0.657725
 O         2.455617        -0.343330        -0.869815
 H        -0.458770        -1.054563         0.167355
 H         0.854785        -0.468908         1.389361
 H        -0.449654         0.519887         0.639237
 H        -0.122901        -0.178784        -2.629510
 H        -0.147777         1.458376        -2.030022
 H         0.701346         1.288288        -4.800958
 H         2.254518         2.141335        -4.760190
 H         3.487877         1.941110        -2.346350
 H         2.048991         2.912749        -1.845030
 H         2.629536         1.509045         0.296915
