19
Iteration:  3306
 C         0.289981        -0.324560         0.324942
 C         1.106623         0.190728        -0.748131
 C         0.567272         0.316712        -2.216081
 C         1.731043         1.086151        -2.935446
 C         1.505756         1.294572        -4.404743
 O         2.244639         0.209704        -3.920972
 C         2.446267         1.973968        -1.956873
 C         2.211731         1.225914        -0.570784
 O         2.560752        -0.101862        -0.654284
 H         0.605583        -1.288038         0.709490
 H         0.484725         0.326423         1.148171
 H        -0.828214         0.037250         0.114376
 H         0.338186        -0.588926        -2.743524
 H        -0.331496         0.931112        -2.060949
 H         0.572561         0.971410        -4.888209
 H         2.050354         2.094633        -4.894326
 H         3.486144         2.102997        -2.246789
 H         1.903825         2.949339        -1.785660
 H         2.380551         1.888626         0.319584
