19
Iteration:  2079
 C         0.014102        -0.069217         0.290141
 C         1.176057         0.169635        -0.699504
 C         0.897761        -0.162291        -2.113146
 C         1.715280         0.892484        -2.980737
 C         1.261936         1.497683        -4.277000
 O         2.289526         0.502117        -4.250368
 C         2.617208         1.763976        -2.002798
 C         2.170725         1.308474        -0.652870
 O         2.533731        -0.062282        -0.349410
 H        -0.648314         0.884792         0.494751
 H        -0.651962        -0.786731        -0.179424
 H         0.387472        -0.517697         1.179882
 H         1.174032        -1.237023        -2.230571
 H        -0.165420         0.192140        -2.409126
 H         0.295957         1.097695        -4.612537
 H         1.500565         2.519270        -4.627243
 H         3.604245         1.328920        -2.375941
 H         2.635210         2.889608        -2.140860
 H         2.313626         2.106465         0.114040
