19
Iteration:  3776
 C         0.322307        -0.118505         0.435415
 C         1.141957         0.327155        -0.733775
 C         0.512020         0.172888        -2.213382
 C         1.520334         1.003466        -2.984619
 C         1.573945         1.399111        -4.369795
 O         2.433258         0.321036        -3.865249
 C         2.329136         1.899811        -2.011947
 C         2.295548         1.209063        -0.666986
 O         2.491903        -0.276786        -0.694601
 H         0.082653        -1.191740         0.071630
 H         0.833872        -0.264551         1.445361
 H        -0.613447         0.471760         0.423270
 H         0.456693        -0.925586        -2.628498
 H        -0.491156         0.663936        -2.017631
 H         0.868282         1.021384        -5.145745
 H         2.005559         2.418310        -4.462081
 H         3.356192         2.141947        -2.384335
 H         1.707479         2.801769        -1.706533
 H         2.502344         1.753827         0.284697
