19
Iteration:  4697
 C         0.209051        -0.217316         0.360887
 C         1.096606         0.208161        -0.667027
 C         0.729177         0.228867        -2.162600
 C         1.701285         0.960654        -2.974455
 C         1.344067         1.380517        -4.303655
 O         2.406696         0.485450        -4.096264
 C         2.445156         1.796143        -2.016631
 C         2.211506         1.233442        -0.697373
 O         2.519466        -0.196777        -0.502327
 H         0.611276        -0.682728         1.212147
 H        -0.484836         0.629327         0.664159
 H        -0.446785        -1.045260        -0.026197
 H         0.491586        -0.732939        -2.635777
 H        -0.223282         0.721103        -2.249732
 H         0.532362         0.945956        -4.829211
 H         1.525690         2.371375        -4.658398
 H         3.457397         1.729305        -2.292661
 H         2.205713         2.874959        -1.929157
 H         2.527714         1.805012         0.236172
