19
Iteration:  2733
 C         0.135869        -0.110538         0.496322
 C         1.060739         0.295342        -0.775978
 C         0.832265        -0.019894        -2.218612
 C         1.762128         0.935992        -2.935138
 C         1.331373         1.525022        -4.194797
 O         2.243269         0.474343        -4.253909
 C         2.670599         1.645071        -2.002369
 C         2.137014         1.266315        -0.692574
 O         2.484987        -0.113913        -0.493617
 H         0.695096        -0.941216         1.066715
 H         0.012495         0.789410         1.097987
 H        -0.885448        -0.406663         0.086112
 H         0.933040        -1.039494        -2.631514
 H        -0.337439         0.145101        -2.478873
 H         0.354404         1.296210        -4.636215
 H         1.865615         2.462407        -4.459979
 H         3.725873         1.225180        -1.951912
 H         2.501862         2.703419        -2.152034
 H         2.171345         1.876173         0.274218
