19
Iteration:  1613charge 0 multiplicity 1
 C         0.057614         0.152082         0.275769
 C         1.095643         0.161938        -0.755966
 C         0.979676        -0.193865        -2.210456
 C         1.791216         0.866258        -2.986057
 C         1.157326         1.581269        -4.049282
 O         2.211994         0.620684        -4.431255
 C         2.741436         1.571510        -2.006437
 C         2.231535         1.226888        -0.665400
 O         2.412364        -0.151410        -0.260515
 H         0.665073         0.185041         1.181591
 H        -0.515397         1.128875         0.320845
 H        -0.512333        -0.775231         0.190196
 H         1.329926        -1.277248        -2.247915
 H        -0.102426        -0.273792        -2.504088
 H         0.175132         1.152851        -4.274862
 H         1.246586         2.665854        -4.207492
 H         3.695317         1.091109        -2.287319
 H         2.895661         2.690258        -2.153843
 H         2.325455         1.835476         0.202261
