19
Iteration:  1360
 C         0.046855         0.007370         0.459341
 C         1.136943         0.178382        -0.751633
 C         0.894257        -0.140613        -2.225820
 C         1.681438         0.915006        -3.039212
 C         1.262762         1.642447        -4.266788
 O         2.224646         0.608503        -4.420274
 C         2.779959         1.494964        -2.048516
 C         2.168561         1.245814        -0.617428
 O         2.463248        -0.106318        -0.171478
 H         0.347869         0.501884         1.408620
 H        -0.974027         0.296228         0.168177
 H         0.113561        -1.051124         0.653620
 H         1.244495        -1.093978        -2.638198
 H        -0.179012         0.071351        -2.380290
 H         0.199435         1.398698        -4.585305
 H         1.630273         2.627387        -4.565249
 H         3.604363         0.766858        -2.143545
 H         2.979664         2.535891        -2.243471
 H         2.224856         2.118204         0.056395
