19
Iteration:  4361charge 0 multiplicity 1
 C         0.444391        -0.381222         0.402231
 C         1.032341         0.269444        -0.737357
 C         0.459063         0.365035        -2.185651
 C         1.617711         1.048059        -2.920239
 C         1.594951         1.263935        -4.372581
 O         2.460314         0.230787        -3.729509
 C         2.320554         2.053173        -2.007214
 C         2.245050         1.234441        -0.633531
 O         2.436835        -0.155478        -0.867257
 H         0.226370        -1.418075         0.266629
 H         1.044170        -0.302489         1.358389
 H        -0.498783         0.180600         0.667442
 H         0.125223        -0.574747        -2.610113
 H        -0.370644         1.033379        -2.224465
 H         0.840855         0.865810        -5.000988
 H         2.038410         2.034610        -4.958132
 H         3.277697         2.315866        -2.421656
 H         1.737357         3.025748        -2.098236
 H         2.508256         1.715467         0.405898
