19
Iteration:   292charge 0 multiplicity 1
 C        -0.085159         0.346391        -0.017504
 C         1.191239         0.149755        -0.846746
 C         1.143328        -0.450830        -2.257538
 C         1.836271         0.693415        -3.007594
 C         1.101331         1.857364        -3.635439
 O         1.922591         0.951841        -4.418452
 C         3.044679         1.105445        -2.082765
 C         2.258121         1.144241        -0.752925
 O         2.345018        -0.087829        -0.073041
 H        -0.193412        -0.499426         0.627304
 H        -0.061428         1.364132         0.548705
 H        -1.058723         0.279920        -0.628694
 H         1.804607        -1.359180        -2.366531
 H         0.164865        -0.706408        -2.637485
 H        -0.012778         1.743021        -3.767955
 H         1.439769         2.955907        -3.664310
 H         3.917263         0.513641        -1.938645
 H         3.497975         2.048986        -2.552990
 H         2.179812         2.016714        -0.163901
