19
Iteration:  2496
 C         0.215170        -0.013054         0.444450
 C         1.112188         0.248597        -0.693320
 C         0.707895        -0.020087        -2.132824
 C         1.601041         1.013736        -3.029463
 C         1.391565         1.352242        -4.482408
 O         2.496128         0.485776        -4.093020
 C         2.375796         1.833866        -1.950686
 C         2.261126         1.193146        -0.677636
 O         2.497441        -0.205394        -0.455296
 H        -0.342857         0.918328         0.855248
 H        -0.504553        -0.912470         0.313421
 H         0.714111        -0.316909         1.269598
 H         0.803584        -1.109694        -2.541977
 H        -0.369215         0.230043        -2.300210
 H         0.505761         0.975903        -5.055889
 H         1.645890         2.353044        -4.931116
 H         3.332365         1.879500        -2.504456
 H         1.793585         2.795196        -1.967161
 H         2.406948         1.720546         0.283104
