19
Iteration:  4277
 C         0.181964        -0.237522         0.433045
 C         1.107708         0.272413        -0.690477
 C         0.668405         0.129176        -2.150529
 C         1.682816         1.036134        -2.981424
 C         1.400855         1.300685        -4.418690
 O         2.458550         0.422626        -3.973224
 C         2.424486         1.910512        -1.935524
 C         2.228995         1.277929        -0.618540
 O         2.465098        -0.194785        -0.723081
 H        -0.559696        -0.989648         0.081431
 H         0.954633        -0.551226         1.244940
 H        -0.288188         0.592523         0.829896
 H         0.729134        -0.873689        -2.506803
 H        -0.408469         0.580065        -2.382717
 H         0.453823         0.804349        -4.673826
 H         1.713564         2.270545        -4.783768
 H         3.554292         1.908161        -2.150225
 H         1.923314         2.865576        -2.007171
 H         2.660284         1.797058         0.214328
