19
Iteration:   708
 C         0.029095         0.169098         0.399726
 C         1.135219         0.176430        -0.732503
 C         0.835225        -0.052134        -2.297130
 C         1.645387         0.934873        -3.065895
 C         1.278822         1.689073        -4.215180
 O         2.266001         0.494107        -4.240433
 C         2.664024         1.696790        -1.981386
 C         2.301270         1.111853        -0.614907
 O         2.510670        -0.334462        -0.307467
 H        -0.492755         1.087669         0.353992
 H        -0.789460        -0.674162         0.141851
 H         0.544773        -0.065852         1.429888
 H         1.126053        -1.025827        -2.678956
 H        -0.236833        -0.081848        -2.529042
 H         0.345001         1.314347        -4.699068
 H         1.680754         2.739884        -4.470498
 H         3.592329         1.310247        -2.329623
 H         2.463490         2.742370        -2.255011
 H         2.522865         1.702599         0.276314
