19
Iteration:    79
 C         0.400124        -0.479519         0.325332
 C         1.090411         0.359024        -0.784898
 C         0.409526         0.787627        -2.144424
 C         1.571253         1.272168        -2.894546
 C         1.698878         1.210032        -4.347877
 O         2.244319         0.134156        -3.552915
 C         2.504354         1.945769        -1.971995
 C         2.356931         1.113818        -0.641415
 O         2.310145        -0.310710        -1.041063
 H         0.604675        -1.563788         0.104853
 H         0.776408        -0.176595         1.215694
 H        -0.769764        -0.182207         0.399063
 H        -0.070373        -0.044278        -2.607338
 H        -0.304770         1.617984        -1.948529
 H         0.749503         1.212598        -4.992906
 H         2.643514         1.610546        -4.741081
 H         3.484050         1.859306        -2.489885
 H         2.545571         3.005014        -1.834878
 H         2.927291         1.292760         0.300834
