19
Iteration:  4686charge 0 multiplicity 1
 C         0.128499        -0.196710         0.309533
 C         1.202740         0.258561        -0.804627
 C         0.724447         0.124376        -2.196656
 C         1.738340         0.951153        -2.965573
 C         1.188860         1.414323        -4.286127
 O         2.416678         0.444355        -4.065167
 C         2.512871         1.848765        -1.985618
 C         2.259234         1.210402        -0.600421
 O         2.506876        -0.197249        -0.476523
 H         0.749698        -0.658016         1.005530
 H        -0.413659         0.656789         0.828380
 H        -0.612754        -0.842602        -0.233505
 H         0.529134        -0.868496        -2.614677
 H        -0.144293         0.770859        -2.209963
 H         0.289820         0.990852        -4.650930
 H         1.659266         2.254953        -4.690840
 H         3.506289         1.990691        -2.261347
 H         1.999667         2.835883        -2.045335
 H         2.458877         1.901903         0.278667
