19
Iteration:  3137charge 0 multiplicity 1
 C         0.295348        -0.085880         0.489777
 C         1.123330         0.175824        -0.742857
 C         0.674593        -0.050529        -2.243351
 C         1.776129         0.968659        -3.006938
 C         1.381862         1.549347        -4.347034
 O         2.267613         0.440813        -4.227485
 C         2.614436         1.721580        -2.003587
 C         2.058393         1.296798        -0.625795
 O         2.443779        -0.141121        -0.389539
 H         0.180993        -1.237201         0.639125
 H         0.757569         0.319446         1.463638
 H        -0.672900         0.256923         0.343925
 H         0.910895        -0.954076        -2.808133
 H        -0.333929         0.362879        -2.446381
 H         0.399730         1.396602        -4.805724
 H         1.888927         2.482714        -4.638583
 H         3.614159         1.314543        -1.890575
 H         2.542239         2.746042        -2.137993
 H         2.087067         1.928140         0.290206
