19
Iteration:   938charge 0 multiplicity 1
 C        -0.017049         0.086206         0.277756
 C         1.095964         0.247088        -0.726208
 C         0.973302        -0.160985        -2.212088
 C         1.758012         0.857094        -3.015522
 C         1.135330         1.646200        -4.031484
 O         2.222719         0.626066        -4.361749
 C         2.833929         1.462413        -2.084169
 C         2.257045         1.233070        -0.719539
 O         2.431376        -0.151233        -0.212354
 H         0.138553         0.690810         1.085169
 H        -1.029143         0.333178        -0.201877
 H        -0.073755        -0.958898         0.752358
 H         1.370489        -1.197018        -2.343580
 H        -0.041333        -0.059373        -2.647325
 H         0.068679         1.330095        -4.296578
 H         1.369633         2.692853        -4.327247
 H         3.773981         0.917226        -2.321853
 H         3.139197         2.596856        -2.122744
 H         2.228089         1.929574         0.126884
