19
Iteration:  2596charge 0 multiplicity 1
 C         0.114167        -0.133490         0.386686
 C         1.134598         0.296106        -0.676625
 C         0.807426        -0.045055        -2.156705
 C         1.638950         0.911303        -3.071577
 C         1.269281         1.534428        -4.328911
 O         2.349202         0.469956        -4.270615
 C         2.591333         1.662864        -2.102723
 C         2.234415         1.309100        -0.626539
 O         2.512301        -0.077914        -0.261867
 H        -0.955876        -0.063778         0.112808
 H         0.104000        -1.258505         0.587713
 H         0.163069         0.250996         1.383576
 H         1.090431        -1.137415        -2.370805
 H        -0.242625        -0.035797        -2.441369
 H         0.404647         1.162822        -4.907280
 H         1.573439         2.589716        -4.492080
 H         3.615590         1.379189        -2.161770
 H         2.541341         2.774129        -2.117059
 H         2.293805         1.971853         0.224998
