19
Iteration:  1901
 C         0.326678        -0.235605         0.497503
 C         1.089135         0.252475        -0.777477
 C         0.524594         0.287132        -2.178374
 C         1.610524         1.042442        -2.965096
 C         1.590361         1.398603        -4.400826
 O         2.339014         0.236505        -3.872491
 C         2.431711         1.901957        -1.989716
 C         2.191654         1.206150        -0.617063
 O         2.505806        -0.145952        -0.793931
 H         0.460280        -1.263893         0.766586
 H         0.518535         0.288669         1.365826
 H        -0.816841        -0.097285         0.322305
 H         0.349671        -0.777222        -2.320249
 H        -0.502527         0.722407        -2.313080
 H         0.797019         1.185760        -5.071565
 H         2.250439         2.169280        -4.794785
 H         3.527239         1.930116        -2.163110
 H         2.017028         2.953181        -1.933245
 H         2.555783         1.519745         0.354203
