19
Iteration:  2398charge 0 multiplicity 1
 C         0.357243        -0.426180         0.329031
 C         1.095306         0.240461        -0.747165
 C         0.453221         0.500146        -2.190402
 C         1.617620         1.029222        -2.917774
 C         1.575924         1.166200        -4.400037
 O         2.360217         0.194584        -3.813086
 C         2.465786         2.026133        -2.050337
 C         2.136304         1.302565        -0.611099
 O         2.545202        -0.081069        -0.707031
 H        -0.785049        -0.320539         0.405827
 H         0.795895        -1.508501         0.343542
 H         0.648169        -0.130323         1.287244
 H        -0.071794        -0.482629        -2.572225
 H        -0.449951         1.209470        -2.043268
 H         0.690796         0.745270        -4.922315
 H         2.226299         1.952205        -4.772740
 H         3.544351         2.063216        -2.333149
 H         2.046955         3.035354        -1.948388
 H         2.302803         1.876797         0.313673
