19
Iteration:  2455
 C         0.262478        -0.081805         0.382701
 C         1.114743         0.193366        -0.757364
 C         0.629845         0.158100        -2.189869
 C         1.660751         0.950126        -2.983955
 C         1.465357         1.335637        -4.271601
 O         2.422472         0.278481        -3.901162
 C         2.349943         1.930658        -1.976925
 C         2.186472         1.252720        -0.644475
 O         2.537876        -0.127474        -0.746221
 H        -0.717264         0.288557         0.305511
 H         0.038283        -1.237237         0.465604
 H         0.844562         0.205408         1.335022
 H         0.498210        -0.919889        -2.551587
 H        -0.409987         0.636251        -2.236256
 H         0.577456         1.017418        -4.804701
 H         1.999375         2.167981        -4.746590
 H         3.386305         2.120883        -2.258172
 H         1.871204         2.914463        -1.754795
 H         2.367540         1.839934         0.281023
