19
Iteration:  1298charge 0 multiplicity 1
 C         0.017483         0.017074         0.230943
 C         1.210647         0.215257        -0.627442
 C         0.809026         0.050741        -2.174780
 C         1.715372         0.956343        -3.005898
 C         1.197638         1.494638        -4.283706
 O         2.224925         0.438006        -4.228831
 C         2.676404         1.673937        -1.935257
 C         2.299960         1.274177        -0.608550
 O         2.555198        -0.227132        -0.408521
 H         0.175610         0.020853         1.251418
 H        -0.815169         0.707339        -0.036678
 H        -0.509078        -1.058384         0.028217
 H         0.986068        -0.993545        -2.549440
 H        -0.325152         0.178693        -2.148273
 H         0.302381         1.126967        -4.741232
 H         1.562947         2.456225        -4.597680
 H         3.767970         1.591461        -2.123024
 H         2.672482         2.853069        -1.937377
 H         2.436663         1.875667         0.291406
