19
Iteration:  1504charge 0 multiplicity 1
 C         0.007663         0.128600         0.292035
 C         1.136257         0.221631        -0.809022
 C         1.011409        -0.342058        -2.192091
 C         1.819406         0.813874        -3.045114
 C         1.093089         1.659527        -3.997743
 O         2.182240         0.778167        -4.440231
 C         2.846047         1.325383        -2.020676
 C         2.180201         1.265029        -0.711354
 O         2.419626        -0.034514        -0.202515
 H         0.294344         0.626044         1.209901
 H        -1.031351         0.538497         0.035846
 H        -0.137114        -0.986812         0.670880
 H         1.532106        -1.310493        -2.019909
 H        -0.071586        -0.459485        -2.478149
 H         0.112270         1.387794        -4.352675
 H         1.370303         2.737960        -4.047260
 H         3.724029         0.661129        -2.181730
 H         3.059434         2.372728        -2.409527
 H         2.235378         2.004972         0.040236
