19
Iteration:  3567
 C         0.151439         0.007145         0.314862
 C         1.150450         0.127150        -0.726936
 C         0.829088         0.017861        -2.236555
 C         1.778226         0.999919        -2.996546
 C         1.237928         1.503620        -4.278068
 O         2.322617         0.403785        -4.145436
 C         2.573175         1.784930        -1.924570
 C         2.187000         1.198434        -0.665875
 O         2.463821        -0.171857        -0.432001
 H        -0.152105        -1.150252         0.490575
 H         0.604760         0.159458         1.254862
 H        -0.670969         0.675695         0.314886
 H         1.087718        -0.977740        -2.669340
 H        -0.194969         0.269892        -2.371660
 H         0.222496         1.157560        -4.506374
 H         1.571491         2.417769        -4.807838
 H         3.654304         1.679162        -2.169647
 H         2.209219         2.853897        -1.999739
 H         2.051585         1.852396         0.249391
