19
Iteration:  1055
 C         0.228181        -0.027218         0.463886
 C         1.026512         0.240241        -0.662122
 C         0.581105         0.219778        -2.183611
 C         1.698137         1.058897        -2.947036
 C         1.431561         1.376314        -4.318856
 O         2.479212         0.319833        -3.970773
 C         2.456024         1.966473        -1.927136
 C         2.318226         1.138805        -0.639447
 O         2.404961        -0.316618        -0.853515
 H         0.849354        -0.391589         1.299058
 H        -0.400801         0.807221         0.727505
 H        -0.454914        -1.020908         0.299615
 H         0.766230        -0.829076        -2.498306
 H        -0.489423         0.505112        -2.279050
 H         0.551042         0.921205        -4.698074
 H         1.756954         2.157460        -4.970283
 H         3.521109         2.100920        -2.257884
 H         1.969568         2.939092        -1.837506
 H         2.759703         1.396107         0.351153
