19
Iteration:  2212
 C         0.169982        -0.229176         0.355670
 C         1.100718         0.241967        -0.762616
 C         0.783492         0.098198        -2.200417
 C         1.763903         0.982934        -2.971999
 C         1.319926         1.443671        -4.306563
 O         2.252151         0.354878        -4.259323
 C         2.676212         1.752334        -1.953735
 C         2.113275         1.395868        -0.560522
 O         2.502330        -0.105012        -0.395773
 H        -0.930700        -0.261302        -0.054759
 H         0.422545        -1.345225         0.707050
 H         0.160586         0.311713         1.236925
 H         0.791804        -0.978737        -2.601823
 H        -0.306311         0.340596        -2.314979
 H         0.265505         1.349855        -4.652390
 H         1.829305         2.325389        -4.751879
 H         3.785181         1.483454        -1.873492
 H         2.617804         2.797964        -2.316769
 H         2.014387         2.072471         0.287407
