19
Iteration:    84
 C         0.404398        -0.428904         0.323346
 C         1.120437         0.345104        -0.767677
 C         0.440658         0.801905        -2.187949
 C         1.537683         1.292371        -2.901216
 C         1.706432         1.208827        -4.389168
 O         2.235976         0.131000        -3.606670
 C         2.486524         1.889192        -1.899891
 C         2.335753         1.118050        -0.620111
 O         2.326253        -0.315681        -1.028234
 H         0.576532        -1.475283         0.097529
 H         0.820734        -0.366107         1.458944
 H        -0.629542        -0.048581         0.346533
 H        -0.079093        -0.147255        -2.506770
 H        -0.243756         1.603339        -1.891668
 H         0.769197         1.126092        -5.009045
 H         2.600784         1.713240        -4.841282
 H         3.466394         1.789834        -2.418098
 H         2.384046         3.013253        -1.719421
 H         2.792697         1.341765         0.334302
