19
Iteration:  1032
 C         0.121613        -0.041291         0.398351
 C         1.088352         0.281685        -0.683567
 C         0.718677         0.165030        -2.222703
 C         1.667938         1.028610        -2.957695
 C         1.376134         1.376661        -4.380328
 O         2.342114         0.446510        -4.049489
 C         2.550028         1.820124        -1.962288
 C         2.294229         1.171966        -0.639481
 O         2.493819        -0.343111        -0.584286
 H         0.721153        -0.296526         1.359912
 H        -0.559290         0.755110         0.570101
 H        -0.475663        -0.988410         0.212357
 H         0.695314        -0.898102        -2.506375
 H        -0.289782         0.602077        -2.294473
 H         0.480108         1.048706        -4.872943
 H         1.701741         2.364071        -4.701485
 H         3.659271         1.858973        -2.244213
 H         2.176392         2.841760        -1.908782
 H         2.565091         1.739388         0.279125
