19
Iteration:   391charge 0 multiplicity 1
 C        -0.083539         0.356380         0.057631
 C         1.160734         0.190699        -0.787278
 C         1.052878        -0.282666        -2.169083
 C         1.769179         0.832072        -2.966975
 C         1.115995         1.737494        -3.900881
 O         1.980097         0.769499        -4.385864
 C         2.954156         1.360359        -2.080835
 C         2.329798         1.081007        -0.659108
 O         2.423085        -0.262789        -0.184017
 H        -0.708630        -0.410380        -0.314144
 H         0.060772         0.050716         1.167951
 H        -0.619888         1.332913         0.076481
 H         1.737083        -1.145554        -2.150433
 H         0.059895        -0.528072        -2.588724
 H         0.098215         1.722624        -4.405095
 H         1.610646         2.730560        -3.798757
 H         3.860689         0.827997        -2.251121
 H         3.340049         2.442854        -2.246037
 H         2.358420         1.886496         0.089757
