19
Iteration:  1414charge 0 multiplicity 1
 C         0.028386         0.174131         0.193482
 C         1.090519         0.261859        -0.786354
 C         0.995575        -0.198702        -2.198715
 C         1.813136         0.820052        -2.945608
 C         1.100896         1.597520        -4.024178
 O         2.157454         0.588105        -4.304969
 C         2.773189         1.580098        -2.034669
 C         2.219951         1.207365        -0.674129
 O         2.487861        -0.205257        -0.288875
 H         0.305697         0.536855         1.298878
 H        -0.786541         0.751654        -0.325465
 H        -0.395994        -0.811293         0.202253
 H         1.598627        -1.113514        -2.212080
 H         0.007987        -0.348658        -2.672157
 H         0.051934         1.331995        -4.351776
 H         1.434033         2.626603        -4.216386
 H         3.836958         1.339962        -2.236330
 H         2.795970         2.658235        -2.133099
 H         2.412410         1.914718         0.173186
