19
Iteration:  2763charge 0 multiplicity 1
 C         0.114502        -0.136139         0.426170
 C         1.130837         0.294230        -0.695987
 C         0.747942        -0.024365        -2.208728
 C         1.668219         0.968472        -2.998086
 C         1.376445         1.594651        -4.341243
 O         2.282329         0.433984        -4.228704
 C         2.520380         1.677997        -2.024951
 C         2.317571         1.237564        -0.623501
 O         2.500002        -0.155818        -0.382009
 H         0.632805        -0.642108         1.139070
 H        -0.289320         0.700008         0.981819
 H        -0.885688        -0.626353        -0.039016
 H         0.848216        -1.089628        -2.556112
 H        -0.360267         0.256175        -2.166592
 H         0.423610         1.445005        -4.867668
 H         1.902086         2.490479        -4.723580
 H         3.565950         1.479295        -2.260656
 H         2.411971         2.757290        -2.128571
 H         2.573664         1.751269         0.370276
