19
Iteration:  1290charge 0 multiplicity 1
 C         0.042943         0.024710         0.257028
 C         1.206083         0.230097        -0.658791
 C         0.794165         0.018048        -2.149762
 C         1.688695         1.032055        -2.976108
 C         1.204413         1.464112        -4.350467
 O         2.274628         0.472760        -4.236279
 C         2.664149         1.699959        -2.003055
 C         2.252900         1.194847        -0.559658
 O         2.551684        -0.256396        -0.361163
 H         0.329356        -0.010080         1.361207
 H        -0.639082         0.863189         0.068037
 H        -0.322509        -0.942197         0.013651
 H         0.937847        -1.008038        -2.479749
 H        -0.214358         0.433641        -2.306382
 H         0.226078         1.164988        -4.707074
 H         1.582224         2.423836        -4.781690
 H         3.656463         1.385253        -2.258946
 H         2.423640         2.742092        -1.999639
 H         2.413918         1.837068         0.324879
