19
Iteration:  2463
 C         0.234523        -0.058344         0.449961
 C         1.168078         0.145478        -0.791223
 C         0.675734         0.140138        -2.170766
 C         1.673736         0.985883        -2.847212
 C         1.456942         1.333659        -4.347175
 O         2.427830         0.318038        -3.952331
 C         2.328578         1.859143        -1.981641
 C         2.136771         1.243819        -0.655821
 O         2.528058        -0.133134        -0.730138
 H        -0.699313         0.659649         0.385928
 H        -0.065241        -1.143458         0.518671
 H         0.787893         0.210213         1.237292
 H         0.699249        -0.913539        -2.655934
 H        -0.177542         0.743330        -2.483073
 H         0.478186         1.019655        -4.793406
 H         1.943015         2.265272        -4.722925
 H         3.338331         2.126689        -2.358740
 H         1.770661         2.833561        -1.986684
 H         2.394350         1.755182         0.287743
