19
Iteration:  4456
 C         0.240759        -0.209662         0.445950
 C         1.073829         0.238164        -0.690140
 C         0.668309         0.051473        -2.133844
 C         1.638244         1.002153        -2.969365
 C         1.473090         1.424386        -4.406939
 O         2.383711         0.364881        -4.058635
 C         2.405324         1.912572        -2.010938
 C         2.204703         1.221330        -0.620169
 O         2.547813        -0.118059        -0.617145
 H         0.381579        -1.240308         0.789484
 H         0.427304         0.380808         1.301299
 H        -0.880417        -0.035480         0.220665
 H         0.601839        -1.058252        -2.549180
 H        -0.456025         0.344770        -2.238742
 H         0.616364         1.092038        -5.119157
 H         1.821764         2.442845        -4.869175
 H         3.457408         2.103989        -2.136937
 H         2.011493         2.962077        -1.943675
 H         2.518776         1.692739         0.363425
