19
Iteration:  2263charge 0 multiplicity 1
 C         0.223064        -0.122954         0.347564
 C         1.111341         0.229259        -0.683125
 C         0.635336         0.055229        -2.203292
 C         1.655168         1.028878        -2.958243
 C         1.421592         1.408326        -4.385443
 O         2.396028         0.372018        -4.006301
 C         2.412352         1.868431        -2.035239
 C         2.270776         1.245598        -0.660563
 O         2.503654        -0.185963        -0.501669
 H        -0.745595         0.494923         0.327508
 H        -0.111372        -1.097355         0.207453
 H         0.741611        -0.240568         1.328966
 H         0.714718        -0.977679        -2.453056
 H        -0.430323         0.341762        -2.318477
 H         0.619156         1.012399        -4.973119
 H         1.830813         2.385620        -4.674857
 H         3.480820         1.967151        -2.191122
 H         2.102280         2.905089        -1.964237
 H         2.501066         1.996353         0.163811
