19
Iteration:   931charge 0 multiplicity 1
 C        -0.026183         0.149344         0.235560
 C         1.152736         0.154048        -0.710670
 C         0.943814        -0.161076        -2.232417
 C         1.769065         0.898415        -2.969107
 C         1.155650         1.609845        -4.012690
 O         2.202043         0.671903        -4.400629
 C         2.802353         1.405679        -2.063799
 C         2.248708         1.225708        -0.718213
 O         2.457003        -0.133233        -0.185336
 H         0.138952         0.865696         1.161190
 H        -0.945312         0.326932        -0.360572
 H        -0.202989        -0.801674         0.596962
 H         1.486719        -1.069793        -2.487471
 H        -0.102816        -0.197713        -2.542526
 H         0.168786         1.185762        -4.273652
 H         1.307062         2.656520        -4.289631
 H         3.733611         0.883048        -2.237133
 H         2.797559         2.474131        -2.191641
 H         2.369732         2.001080         0.040286
