19
Iteration:   189
 C         0.125026         0.173140         0.379401
 C         1.103264         0.216348        -0.746638
 C         0.781812        -0.038321        -2.215774
 C         1.759423         0.951709        -2.986046
 C         1.310048         1.672055        -4.251131
 O         2.264621         0.591893        -4.322727
 C         2.704096         1.634041        -1.942730
 C         2.274887         1.053673        -0.562957
 O         2.401685        -0.420874        -0.414429
 H        -0.843042        -0.384474         0.214790
 H         0.644339        -0.141655         1.186908
 H        -0.371531         1.243974         0.570299
 H         0.861278        -1.033722        -2.639994
 H        -0.302949         0.225874        -2.275838
 H         0.281333         1.392109        -4.581300
 H         1.599370         2.700509        -4.490413
 H         3.698246         1.198542        -2.246007
 H         2.673601         2.702734        -2.010878
 H         2.247504         1.719725         0.354834
