19
Iteration:   327
 C        -0.169180         0.452888        -0.160197
 C         1.183221         0.139318        -0.753130
 C         1.201120        -0.439819        -2.237942
 C         1.879619         0.717605        -2.993472
 C         0.981396         1.770670        -3.598970
 O         1.908865         0.940581        -4.376491
 C         3.060049         1.186432        -2.133419
 C         2.384591         1.124153        -0.726389
 O         2.366816        -0.162773        -0.092256
 H        -0.522390        -0.515043         0.252825
 H        -0.133655         1.132063         0.849926
 H        -0.800441         0.838129        -0.887623
 H         1.870809        -1.305856        -2.360109
 H         0.178903        -0.724248        -2.620762
 H        -0.075207         1.546548        -3.803448
 H         1.282267         2.809423        -3.582961
 H         3.920168         0.518044        -2.179708
 H         3.190328         2.224873        -2.557145
 H         2.269559         1.944969         0.019278
