19
Iteration:  3004
 C         0.276575        -0.160833         0.479477
 C         1.115248         0.245711        -0.707513
 C         0.538358         0.235609        -2.113561
 C         1.578870         0.972869        -2.970144
 C         1.658554         1.507725        -4.340204
 O         2.324121         0.241425        -3.986800
 C         2.377302         1.897575        -2.034071
 C         2.283331         1.187148        -0.678327
 O         2.461850        -0.209775        -0.729661
 H         1.075216        -0.408031         1.186323
 H        -0.411710         0.552583         0.923516
 H        -0.333806        -1.086548         0.145651
 H         0.471501        -0.847976        -2.419947
 H        -0.498844         0.590832        -2.235547
 H         0.882763         1.344718        -5.110138
 H         2.295440         2.395962        -4.467778
 H         3.348366         2.217782        -2.371517
 H         1.962649         2.866794        -1.831485
 H         2.541582         1.550547         0.393217
