19
Iteration:  3123
 C         0.186568        -0.118584         0.436228
 C         1.083317         0.157227        -0.764274
 C         0.757349         0.026098        -2.210807
 C         1.651488         0.913751        -3.000252
 C         1.431977         1.619992        -4.281009
 O         2.253912         0.393523        -4.188644
 C         2.605712         1.763061        -2.001714
 C         2.124633         1.237480        -0.692216
 O         2.538794        -0.135765        -0.405372
 H         0.383461        -1.063334         0.854737
 H         0.533522         0.582262         1.137358
 H        -0.931791         0.100226         0.352890
 H         0.761402        -1.123798        -2.329409
 H        -0.366588         0.184229        -2.361868
 H         0.480502         1.394452        -4.803369
 H         1.964130         2.540951        -4.552966
 H         3.589099         1.513329        -2.326213
 H         2.581654         2.867709        -2.141166
 H         2.078244         2.008830         0.222555
