19
Iteration:  2690
 C         0.011341         0.014994         0.291081
 C         1.164395         0.174354        -0.630166
 C         0.907206        -0.037686        -2.178045
 C         1.687357         0.976569        -2.915069
 C         1.267019         1.510312        -4.348358
 O         2.248415         0.537826        -4.249929
 C         2.593518         1.690126        -2.051894
 C         2.276422         1.184724        -0.669477
 O         2.545218        -0.178661        -0.306343
 H         0.077857        -1.148251         0.480227
 H         0.190407         0.347524         1.315585
 H        -0.964417         0.364675        -0.080211
 H         0.906250        -1.085586        -2.444352
 H        -0.201120         0.122168        -2.414258
 H         0.270105         1.145672        -4.622544
 H         1.498289         2.560932        -4.623397
 H         3.631565         1.395946        -2.454088
 H         2.436091         2.777207        -2.002692
 H         2.424878         1.935299         0.154750
