19
Iteration:  1790charge 0 multiplicity 1
 C         0.341753        -0.144003         0.459719
 C         1.079083         0.231277        -0.814461
 C         0.424261         0.430249        -2.156732
 C         1.621066         1.064368        -2.994881
 C         1.543547         1.345244        -4.358082
 O         2.454232         0.278182        -3.842024
 C         2.348794         1.928177        -1.967731
 C         2.275545         1.082272        -0.685792
 O         2.527593        -0.297578        -0.762599
 H         0.948816         0.153021         1.252297
 H        -0.702872         0.272206         0.386770
 H         0.074595        -1.307627         0.607026
 H         0.226168        -0.663609        -2.475505
 H        -0.463243         1.129418        -2.276291
 H         0.662726         0.997792        -4.897268
 H         2.174003         2.138084        -4.774732
 H         3.349288         2.307187        -2.329126
 H         1.736407         2.807045        -1.516683
 H         2.532366         1.536421         0.291094
