19
Iteration:  2731charge 0 multiplicity 1
 C         0.145387        -0.100132         0.495683
 C         1.055623         0.285839        -0.795602
 C         0.827555        -0.030007        -2.227764
 C         1.765828         0.935208        -2.952529
 C         1.326539         1.525978        -4.183336
 O         2.243538         0.472932        -4.246704
 C         2.660622         1.637817        -1.992283
 C         2.142236         1.264823        -0.668423
 O         2.492683        -0.105965        -0.492735
 H         0.620023        -0.895438         0.977234
 H         0.041546         0.789762         1.093701
 H        -0.937506        -0.447581         0.096669
 H         0.949044        -1.038839        -2.670115
 H        -0.327494         0.193240        -2.480029
 H         0.346173         1.270637        -4.591860
 H         1.829724         2.461277        -4.490280
 H         3.665877         1.225784        -1.964175
 H         2.568123         2.710823        -2.141562
 H         2.228737         1.949014         0.269756
