19
Iteration:   128
 C         0.229258        -0.164220         0.406132
 C         1.156366         0.210138        -0.750947
 C         0.529076         0.502087        -2.126678
 C         1.643363         1.097430        -2.916792
 C         1.604542         1.458807        -4.332641
 O         2.279680         0.225605        -3.906792
 C         2.451192         1.805821        -1.952745
 C         2.320866         1.109720        -0.638400
 O         2.433576        -0.353176        -0.836547
 H        -0.391136        -0.928322        -0.030028
 H         0.736441        -0.599834         1.435850
 H        -0.335250         0.715761         0.685973
 H         0.173385        -0.288747        -2.873543
 H        -0.242191         1.280147        -2.033017
 H         0.660863         1.152589        -4.808233
 H         2.140891         2.401849        -4.633045
 H         3.515037         1.947174        -2.148415
 H         2.208709         2.911291        -1.829305
 H         2.752436         1.515642         0.249830
