19
Iteration:  3772
 C         0.298694        -0.124145         0.442924
 C         1.184029         0.319116        -0.752176
 C         0.504345         0.149840        -2.194380
 C         1.537715         1.018982        -2.958614
 C         1.567594         1.392726        -4.361285
 O         2.423164         0.314382        -3.895354
 C         2.328734         1.877064        -2.001814
 C         2.290539         1.210130        -0.627453
 O         2.500340        -0.260395        -0.710190
 H         0.008642        -1.123529         0.196462
 H         0.815338        -0.139749         1.330539
 H        -0.737313         0.382018         0.290567
 H         0.427418        -0.853321        -2.601906
 H        -0.431203         0.696863        -2.245163
 H         0.829232         1.156087        -5.116658
 H         2.031169         2.374001        -4.436858
 H         3.282752         2.197212        -2.413795
 H         1.764092         2.735894        -1.754287
 H         2.549172         1.898196         0.256820
