19
Iteration:  2229
 C         0.113743        -0.243961         0.311284
 C         1.191031         0.176055        -0.603630
 C         0.709716         0.097921        -2.150945
 C         1.755647         0.948629        -3.049756
 C         1.380109         1.477011        -4.372118
 O         2.268036         0.375399        -4.175462
 C         2.585352         1.777751        -1.975939
 C         2.105504         1.288503        -0.635056
 O         2.553695        -0.038728        -0.420824
 H        -0.875327         0.033249        -0.043811
 H         0.244643        -1.229736         0.397882
 H         0.255287         0.389929         1.311886
 H         0.484469        -0.883347        -2.457142
 H        -0.242599         0.640674        -2.242965
 H         0.478874         1.052143        -4.801596
 H         1.742781         2.426313        -4.767372
 H         3.581586         1.433051        -2.083986
 H         2.574701         2.864385        -1.941043
 H         2.367798         1.944507         0.265269
