19
Iteration:  3500
 C         0.222870        -0.228444         0.386332
 C         1.101178         0.219025        -0.753511
 C         0.613260         0.187316        -2.157185
 C         1.666261         0.992729        -3.009937
 C         1.406944         1.456783        -4.344105
 O         2.365029         0.367009        -4.118524
 C         2.574836         1.758654        -1.989976
 C         2.198827         1.236663        -0.622023
 O         2.468912        -0.091959        -0.469461
 H         0.542966        -1.387619         0.453778
 H         0.465657         0.211115         1.327430
 H        -0.762450        -0.004054         0.201562
 H         0.465135        -0.825274        -2.610563
 H        -0.317403         0.720776        -2.287160
 H         0.428027         1.078490        -4.690723
 H         1.797771         2.379682        -4.802066
 H         3.623827         1.455605        -2.268948
 H         2.594028         2.880387        -1.902231
 H         2.259197         1.938864         0.254045
