19
Iteration:   417charge 0 multiplicity 1
 C         0.038689         0.218649         0.269000
 C         1.107899         0.140197        -0.760752
 C         0.856011        -0.173816        -2.257268
 C         1.790464         0.836106        -3.001837
 C         1.208282         1.727509        -3.954504
 O         2.167114         0.720322        -4.384744
 C         2.822814         1.394402        -2.089117
 C         2.265507         1.095291        -0.678207
 O         2.404852        -0.179780        -0.237312
 H        -0.674112        -0.684039         0.188742
 H         0.405203         0.183429         1.345271
 H        -0.483335         1.112270         0.183741
 H         1.129756        -1.199381        -2.506589
 H        -0.175867         0.071513        -2.572189
 H         0.213202         1.560933        -4.258923
 H         1.633435         2.700509        -4.066390
 H         3.831027         0.844334        -2.093018
 H         3.141362         2.394005        -2.297333
 H         2.594277         1.830565         0.081467
