19
Iteration:  2806charge 0 multiplicity 1
 C         0.123679        -0.018677         0.361959
 C         1.146630         0.130296        -0.741504
 C         0.772321         0.144060        -2.195697
 C         1.687255         1.020268        -2.956144
 C         1.316059         1.379760        -4.299930
 O         2.306821         0.424133        -4.060257
 C         2.540739         1.826663        -1.941558
 C         2.270627         1.193295        -0.592646
 O         2.534221        -0.248385        -0.609717
 H         0.587995         0.038240         1.255128
 H        -0.638921         0.737032         0.187097
 H        -0.441487        -1.028161         0.046389
 H         0.433531        -0.800661        -2.635082
 H        -0.126425         0.662904        -2.371226
 H         0.307396         1.056037        -4.591239
 H         1.707653         2.316349        -4.733590
 H         3.551206         1.695630        -2.289513
 H         2.244782         2.890734        -1.742717
 H         2.486825         1.825282         0.363162
