19
Iteration:  3240charge 0 multiplicity 1
 C         0.252206        -0.051283         0.453669
 C         1.086519         0.185872        -0.749096
 C         0.699492         0.098334        -2.173643
 C         1.640063         0.978722        -2.970320
 C         1.413713         1.422094        -4.363795
 O         2.416082         0.410774        -4.084649
 C         2.382291         1.865437        -2.005694
 C         2.167571         1.212334        -0.629488
 O         2.550973        -0.249729        -0.543714
 H        -0.158606        -1.073139         0.493936
 H         0.701562         0.067564         1.414350
 H        -0.630740         0.732815         0.447188
 H         0.711908        -0.906702        -2.498185
 H        -0.260435         0.419273        -2.488911
 H         0.526900         1.093255        -4.931241
 H         1.779964         2.400487        -4.657456
 H         3.426476         1.937555        -2.364763
 H         2.049029         2.957065        -2.019532
 H         2.533647         1.571477         0.300587
