19
Iteration:   427charge 0 multiplicity 1
 C         0.031572         0.182842         0.335520
 C         1.098326         0.155396        -0.762592
 C         0.822213        -0.090011        -2.225585
 C         1.803289         0.856856        -2.957547
 C         1.233296         1.698702        -4.066110
 O         2.171082         0.698422        -4.385967
 C         2.912510         1.421357        -2.050914
 C         2.225626         1.151129        -0.711130
 O         2.424384        -0.256190        -0.268251
 H        -0.592242        -0.783722         0.342595
 H         0.665163         0.214681         1.345623
 H        -0.667675         0.915467         0.232129
 H         0.965236        -1.145956        -2.466210
 H        -0.264576         0.058866        -2.471822
 H         0.263941         1.599921        -4.510240
 H         1.540990         2.732331        -4.021852
 H         3.751315         0.720000        -2.291004
 H         3.027663         2.489609        -2.158562
 H         2.109224         1.929842         0.105599
