19
Iteration:   852charge 0 multiplicity 1
 C        -0.108336         0.248390        -0.041090
 C         1.217212         0.256319        -0.818682
 C         1.178776        -0.271565        -2.218199
 C         1.879650         0.738912        -3.046229
 C         0.932301         1.581776        -3.783451
 O         1.988908         0.732772        -4.434377
 C         3.012631         1.354137        -2.003463
 C         2.233717         1.206737        -0.667722
 O         2.411336        -0.066412        -0.095568
 H         0.052150         0.191686         1.061852
 H        -0.608932         1.333923        -0.161232
 H        -0.683518        -0.552405        -0.373371
 H         1.759361        -1.193196        -2.242386
 H         0.264642        -0.628526        -2.676850
 H        -0.124839         1.158890        -3.587393
 H         1.237069         2.653027        -3.961963
 H         3.957137         0.841383        -1.938173
 H         3.132285         2.436326        -2.345472
 H         2.301461         2.049084         0.032570
