19
Iteration:  3810charge 0 multiplicity 1
 C         0.307733        -0.238389         0.572381
 C         1.133232         0.192417        -0.711445
 C         0.553512         0.321300        -2.240488
 C         1.569490         1.109915        -2.990059
 C         1.564006         1.214864        -4.454425
 O         2.480471         0.315703        -3.851283
 C         2.387060         1.996687        -1.904230
 C         2.171663         1.218639        -0.648782
 O         2.479283        -0.205086        -0.852432
 H        -0.506503        -0.981916         0.221399
 H         0.881618        -0.618176         1.559272
 H        -0.249476         0.558588         1.029211
 H         0.259308        -0.642038        -2.806716
 H        -0.509470         0.789474        -2.088425
 H         0.724668         0.701226        -4.984229
 H         1.901678         2.119253        -5.014657
 H         3.432389         2.244740        -2.184032
 H         1.905069         3.060038        -1.904491
 H         2.421965         1.530565         0.334049
