19
Iteration:  3088charge 0 multiplicity 1
 C         0.051854        -0.130872         0.272377
 C         1.189190         0.312221        -0.657230
 C         0.750231         0.064244        -2.103389
 C         1.652984         0.966205        -2.988256
 C         1.302037         1.475784        -4.310522
 O         2.309817         0.416884        -4.151292
 C         2.573118         1.852307        -2.055607
 C         2.322404         1.198756        -0.590610
 O         2.528600        -0.235805        -0.502927
 H         0.277739        -0.937256         0.862412
 H         0.024310         0.685546         0.955366
 H        -1.006224        -0.349204        -0.143995
 H         0.924226        -1.072289        -2.203214
 H        -0.322584         0.365524        -2.225686
 H         0.390178         1.164337        -4.826626
 H         1.713581         2.423484        -4.691901
 H         3.642857         1.692689        -2.175247
 H         2.163019         2.897392        -1.913637
 H         2.531731         1.688082         0.407779
