19
Iteration:  3718charge 0 multiplicity 1
 C         0.262262        -0.214601         0.344446
 C         1.109714         0.278743        -0.780399
 C         0.642031         0.200993        -2.174961
 C         1.695424         1.068240        -2.969407
 C         1.367099         1.375666        -4.380639
 O         2.363701         0.369423        -4.059055
 C         2.540363         1.800441        -1.993690
 C         2.231055         1.194034        -0.575820
 O         2.452464        -0.147040        -0.488231
 H         0.468828        -1.261640         0.588911
 H         0.286075         0.420499         1.210829
 H        -0.924556        -0.188026         0.084386
 H         0.619263        -0.821595        -2.709675
 H        -0.418756         0.528027        -2.229259
 H         0.458572         0.886506        -4.741295
 H         1.562221         2.354004        -4.856655
 H         3.622386         1.665035        -2.166633
 H         2.472575         2.871572        -2.009804
 H         2.472384         1.866868         0.335706
