19
Iteration:  2035
 C         0.127353        -0.196143         0.419957
 C         1.131038         0.216016        -0.688940
 C         0.805267        -0.083596        -2.166769
 C         1.745400         0.971128        -3.046096
 C         1.354966         1.533029        -4.322283
 O         2.251373         0.456305        -4.268044
 C         2.651836         1.672015        -2.051070
 C         2.084023         1.322657        -0.633302
 O         2.499973        -0.026269        -0.320346
 H        -0.942005         0.294570         0.327038
 H         0.018546        -1.258955         0.319668
 H         0.544914         0.175428         1.330925
 H         0.968231        -1.024628        -2.731148
 H        -0.282766         0.291912        -2.318796
 H         0.314022         1.311396        -4.623555
 H         1.891474         2.375560        -4.750286
 H         3.727284         1.297285        -1.951297
 H         2.740390         2.789712        -2.226747
 H         2.048951         1.971242         0.283077
