19
Iteration:  4121charge 0 multiplicity 1
 C         0.017124        -0.039109         0.362547
 C         1.127913         0.222291        -0.667803
 C         0.922345        -0.123138        -2.195525
 C         1.623066         0.967299        -2.974902
 C         1.296164         1.509582        -4.296449
 O         2.296594         0.527858        -4.212509
 C         2.568963         1.731470        -2.023570
 C         2.266927         1.226736        -0.634663
 O         2.540424        -0.154604        -0.422699
 H        -0.491732        -0.995753         0.209816
 H         0.326167        -0.028061         1.404669
 H        -0.739243         0.826986         0.122306
 H         1.356273        -1.105070        -2.369579
 H        -0.213674        -0.421125        -2.309440
 H         0.347167         1.194378        -4.661978
 H         1.533767         2.507486        -4.617443
 H         3.661002         1.629535        -2.333832
 H         2.458745         2.863824        -2.064974
 H         2.352749         1.937361         0.329728
