19
Iteration:  1291
 C         0.037153         0.022552         0.246946
 C         1.206007         0.229532        -0.647097
 C         0.792444         0.018001        -2.155611
 C         1.693286         1.026962        -2.979154
 C         1.199906         1.467793        -4.343869
 O         2.270490         0.467032        -4.236771
 C         2.666787         1.696410        -1.995267
 C         2.257284         1.208811        -0.564294
 O         2.553967        -0.255531        -0.367866
 H         0.315930        -0.023918         1.380227
 H        -0.652324         0.846714         0.048357
 H        -0.313956        -0.913972         0.031136
 H         0.952541        -0.995685        -2.489133
 H        -0.214532         0.412482        -2.272799
 H         0.217311         1.157053        -4.725224
 H         1.590858         2.435666        -4.761052
 H         3.675652         1.407560        -2.241468
 H         2.448098         2.723680        -1.977306
 H         2.409176         1.843070         0.326369
