19
Iteration:  3919charge 0 multiplicity 1
 C         0.327553        -0.199351         0.456975
 C         1.073256         0.211606        -0.754107
 C         0.581040         0.300750        -2.199790
 C         1.757596         0.964288        -2.920491
 C         1.458453         1.335725        -4.290463
 O         2.410492         0.290121        -3.995872
 C         2.419933         1.926517        -1.934154
 C         2.144176         1.228727        -0.672524
 O         2.458947        -0.171842        -0.759154
 H         0.580241        -1.308243         0.517753
 H         0.730980         0.260051         1.489309
 H        -0.679454         0.097461         0.468473
 H         0.500912        -0.677069        -2.818632
 H        -0.244844         0.939560        -2.084381
 H         0.473710         1.125885        -4.770220
 H         1.966342         2.220624        -4.746648
 H         3.471018         1.998083        -2.222233
 H         1.805617         2.819348        -1.854557
 H         2.192906         1.726538         0.252303
