19
Iteration:    20charge 0 multiplicity 1
 C         0.246201        -0.237018         0.347347
 C         1.127959         0.243892        -0.792638
 C         0.496573         0.602404        -2.124858
 C         1.653487         1.181670        -2.928822
 C         1.568663         1.348451        -4.395101
 O         2.236718         0.177819        -3.816825
 C         2.533504         1.940669        -1.907944
 C         2.357631         1.080907        -0.654617
 O         2.465342        -0.375921        -0.829541
 H         0.107546        -1.313065         0.271599
 H         0.616839        -0.070818         1.463695
 H        -0.698090         0.179363         0.232419
 H        -0.001115        -0.226356        -2.695638
 H        -0.257331         1.383052        -1.906321
 H         0.651998         1.168888        -4.896954
 H         2.269950         2.024822        -4.849936
 H         3.560445         2.131084        -2.186725
 H         1.928877         2.797969        -1.556719
 H         2.629678         1.469719         0.323959
