19
Iteration:    75charge 0 multiplicity 1
 C         0.366429        -0.500129         0.301785
 C         1.055356         0.354703        -0.795061
 C         0.373503         0.776491        -2.087158
 C         1.606551         1.251729        -2.897668
 C         1.702323         1.217825        -4.322857
 O         2.238144         0.131803        -3.518506
 C         2.545384         1.988826        -2.014716
 C         2.378052         1.107854        -0.673373
 O         2.310084        -0.302671        -1.048043
 H         0.557319        -1.542504         0.131626
 H         0.870213        -0.012351         1.298899
 H        -0.638763        -0.413890         0.408912
 H        -0.114775        -0.010263        -2.726293
 H        -0.363513         1.591390        -1.989184
 H         0.867133         1.180716        -4.924108
 H         2.559129         1.676654        -4.755369
 H         3.521435         1.838044        -2.449182
 H         2.510978         3.092532        -1.885294
 H         2.962186         1.279183         0.208670
