19
Iteration:  2591charge 0 multiplicity 1
 C         0.123714        -0.167297         0.404092
 C         1.117993         0.303170        -0.677253
 C         0.818005        -0.022661        -2.186423
 C         1.641096         0.887075        -3.038744
 C         1.277858         1.512029        -4.341289
 O         2.320439         0.479567        -4.252194
 C         2.623900         1.679543        -2.111287
 C         2.225249         1.287990        -0.638130
 O         2.509434        -0.074341        -0.251470
 H        -0.946687         0.154140        -0.010783
 H         0.107018        -1.255414         0.436993
 H         0.178429         0.200015         1.478269
 H         1.134237        -1.006727        -2.472210
 H        -0.295085        -0.077735        -2.275463
 H         0.430246         1.241767        -4.977215
 H         1.590638         2.546129        -4.518452
 H         3.737562         1.440860        -2.113478
 H         2.408552         2.759478        -2.179937
 H         2.296418         2.081662         0.144220
