19
Iteration:  3175charge 0 multiplicity 1
 C         0.106864        -0.133923         0.363502
 C         1.150821         0.259758        -0.604530
 C         0.738012         0.000482        -2.195010
 C         1.663387         0.931354        -2.991583
 C         1.270589         1.436766        -4.304679
 O         2.368360         0.501118        -4.143235
 C         2.616644         1.799942        -2.049625
 C         2.238324         1.259856        -0.654368
 O         2.506078        -0.181102        -0.458867
 H        -0.431064        -0.900623        -0.177997
 H         0.402412        -0.421403         1.343205
 H        -0.689835         0.756650         0.478686
 H         0.786011        -1.064460        -2.268718
 H        -0.304233         0.240992        -2.279150
 H         0.351621         1.017087        -4.744236
 H         1.589932         2.377713        -4.738296
 H         3.712671         1.768059        -2.258861
 H         2.436786         2.954867        -2.302299
 H         2.594052         1.821476         0.202049
