19
Iteration:   591charge 0 multiplicity 1
 C         0.325344        -0.305855         0.369874
 C         1.161300         0.223947        -0.796707
 C         0.417078         0.718576        -2.107592
 C         1.601898         1.182042        -2.892988
 C         1.712150         1.234543        -4.307157
 O         2.251975         0.088108        -3.713019
 C         2.459486         2.061432        -1.908140
 C         2.277221         1.116092        -0.730167
 O         2.466067        -0.346647        -1.008456
 H        -0.708566        -0.640180        -0.002579
 H         0.688963        -1.119399         1.082817
 H         0.126687         0.478371         0.984393
 H        -0.236352        -0.010244        -2.613550
 H        -0.273512         1.531802        -1.759421
 H         0.854160         1.048532        -4.935473
 H         2.427513         1.993997        -4.743716
 H         3.490631         2.012870        -2.240396
 H         1.917668         3.029760        -1.663637
 H         2.619951         1.346756         0.285142
