19
Iteration:  3544
 C         0.138416        -0.131188         0.377985
 C         1.099868         0.255999        -0.688101
 C         0.756822        -0.028352        -2.193608
 C         1.684489         0.996598        -2.979092
 C         1.450537         1.531271        -4.340321
 O         2.211506         0.372429        -4.225030
 C         2.531015         1.790204        -1.954714
 C         2.202200         1.226801        -0.597540
 O         2.554285        -0.119055        -0.460431
 H        -0.017590        -1.320141         0.592734
 H         0.279907         0.262684         1.330475
 H        -0.734185         0.352362         0.105081
 H         1.097652        -1.085937        -2.437520
 H        -0.314972         0.104085        -2.243765
 H         0.544871         1.633734        -4.955293
 H         2.201869         2.344780        -4.504196
 H         3.622486         1.518908        -2.123063
 H         2.298372         2.850968        -2.239353
 H         2.256688         1.908883         0.326765
