19
Iteration:  2490
 C         0.186488         0.021753         0.483594
 C         1.145272         0.183276        -0.726517
 C         0.655113        -0.029117        -2.134062
 C         1.614806         1.014279        -3.004745
 C         1.358527         1.378462        -4.491918
 O         2.528407         0.425585        -4.091753
 C         2.361265         1.899615        -1.967126
 C         2.206099         1.182893        -0.642936
 O         2.522245        -0.202806        -0.515840
 H        -0.366007         0.858704         0.758346
 H        -0.321035        -0.903353         0.251460
 H         0.889915        -0.289450         1.447947
 H         0.778144        -1.048116        -2.358994
 H        -0.293973         0.388123        -2.498972
 H         0.528684         0.981467        -5.058061
 H         1.780739         2.283679        -4.897017
 H         3.377857         2.001807        -2.357996
 H         1.992743         2.895855        -1.636643
 H         2.347490         1.770119         0.256507
