19
Iteration:   272
 C        -0.112696         0.209990         0.011033
 C         1.190142         0.201962        -0.751720
 C         1.127219        -0.301015        -2.268283
 C         1.923663         0.858859        -3.041738
 C         1.112629         1.807220        -3.724934
 O         1.901646         0.825412        -4.477497
 C         3.034702         1.206036        -2.105029
 C         2.255869         1.174641        -0.774298
 O         2.313736        -0.207276         0.029751
 H         0.035601        -0.598517         0.720167
 H        -0.113916         1.250739         0.664121
 H        -0.975636         0.299887        -0.482043
 H         1.549963        -1.310208        -2.439954
 H         0.125651        -0.208163        -2.727536
 H         0.023704         1.769431        -3.788419
 H         1.561868         2.787063        -3.771551
 H         3.678536         0.362043        -2.292011
 H         3.702587         2.116323        -2.264072
 H         2.421471         2.074816        -0.208693
