19
Iteration:  3610
 C         0.029179         0.027189         0.365463
 C         1.111888         0.245640        -0.647756
 C         0.830718        -0.075847        -2.069274
 C         1.652693         0.942097        -3.019477
 C         1.214939         1.417408        -4.358236
 O         2.463885         0.639411        -4.208766
 C         2.525260         1.697981        -2.043813
 C         2.272996         1.193911        -0.603715
 O         2.542752        -0.223046        -0.473468
 H        -0.799240        -0.741530         0.083514
 H         0.209346        -0.171123         1.330615
 H        -0.551519         0.843345         0.224215
 H         1.143460        -1.176262        -2.162821
 H        -0.231629         0.154738        -2.213254
 H         0.380998         0.874553        -4.819073
 H         1.490692         2.396124        -4.801802
 H         3.605438         1.542267        -2.309922
 H         2.212573         2.763344        -1.833170
 H         2.641101         1.796917         0.319244
