19
Iteration:  2325charge 0 multiplicity 1
 C         0.320953        -0.123789         0.438478
 C         1.168525         0.235212        -0.795676
 C         0.494856         0.271245        -2.140135
 C         1.588558         1.002870        -2.964845
 C         1.568921         1.258470        -4.460479
 O         2.492839         0.391196        -3.767376
 C         2.220545         1.955603        -2.015215
 C         2.201561         1.219447        -0.623349
 O         2.546974        -0.310131        -0.743340
 H        -0.186079         0.653657         0.892621
 H        -0.368742        -0.974432         0.027235
 H         1.011372        -0.525985         1.370557
 H         0.247093        -0.720943        -2.581639
 H        -0.370260         0.933435        -2.312371
 H         0.898189         0.703912        -5.150007
 H         1.916798         2.268239        -4.795086
 H         3.261856         2.108821        -2.287783
 H         1.581815         2.908622        -2.155397
 H         2.461401         1.832346         0.284300
