19
Iteration:  2406
 C         0.342340        -0.461718         0.406216
 C         1.086242         0.227455        -0.741960
 C         0.449888         0.462805        -2.129695
 C         1.640236         1.096081        -3.005662
 C         1.560392         1.224413        -4.450548
 O         2.377832         0.178942        -3.769753
 C         2.431324         2.004476        -2.058787
 C         2.169929         1.334618        -0.672354
 O         2.539128        -0.111643        -0.652034
 H        -0.790802        -0.469032         0.224898
 H         0.582689        -1.461121         0.362228
 H         0.617281        -0.132439         1.358044
 H         0.046234        -0.406126        -2.614622
 H        -0.259197         1.236752        -2.284561
 H         0.690340         0.853199        -4.995752
 H         2.085719         2.039490        -4.944409
 H         3.510057         2.001233        -2.331257
 H         2.091940         3.044703        -2.026978
 H         2.441883         1.876435         0.224410
