19
Iteration:   152charge 0 multiplicity 1
 C         0.103653        -0.015100         0.457509
 C         1.073483         0.305782        -0.755820
 C         0.577495         0.160101        -2.152361
 C         1.623160         1.040697        -2.962822
 C         1.473705         1.554684        -4.352387
 O         2.335571         0.428620        -4.052794
 C         2.614318         1.794790        -1.967744
 C         2.410824         1.022270        -0.604328
 O         2.428178        -0.389165        -0.690969
 H        -0.740312        -0.652038         0.217753
 H         0.792008        -0.533246         1.352292
 H        -0.167936         0.855521         0.904372
 H         0.392208        -0.914214        -2.363269
 H        -0.330225         0.743865        -2.376702
 H         0.557195         1.293996        -4.784490
 H         2.034940         2.379754        -4.751428
 H         3.582233         1.742115        -2.433087
 H         2.537071         2.906670        -1.800040
 H         2.451942         1.499441         0.365805
