19
Iteration:  3231charge 0 multiplicity 1
 C         0.183695        -0.028037         0.404242
 C         1.177641         0.118209        -0.708725
 C         0.776036         0.087417        -2.198571
 C         1.645686         1.018083        -2.969300
 C         1.388475         1.387282        -4.373952
 O         2.344221         0.403871        -4.100085
 C         2.432338         1.910062        -1.956668
 C         2.200446         1.138144        -0.608317
 O         2.520374        -0.197235        -0.559420
 H        -0.389935        -0.904075         0.392973
 H         0.787118         0.002884         1.271350
 H        -0.539974         0.956443         0.269191
 H         0.897689        -0.937137        -2.545853
 H        -0.231638         0.439671        -2.159899
 H         0.443891         1.069532        -4.857014
 H         1.860244         2.297755        -4.751392
 H         3.501462         1.941714        -2.123569
 H         1.699187         2.821159        -1.993252
 H         2.342116         1.745478         0.365115
