19
Iteration:  2702charge 0 multiplicity 1
 C         0.137696        -0.032495         0.321634
 C         1.181438         0.212293        -0.778996
 C         0.811260        -0.034713        -2.167617
 C         1.679651         0.963135        -3.011319
 C         1.229738         1.493553        -4.242022
 O         2.258764         0.523237        -4.217579
 C         2.677108         1.668635        -2.008804
 C         2.186924         1.247349        -0.644464
 O         2.503633        -0.199830        -0.319183
 H         0.021415        -1.137892         0.733649
 H         0.174661         0.757288         1.095353
 H        -0.811241         0.056371        -0.155592
 H         1.098634        -0.977293        -2.610950
 H        -0.233270         0.300047        -2.179704
 H         0.333368         1.185994        -4.788404
 H         1.622180         2.466858        -4.584249
 H         3.799982         1.478661        -2.179997
 H         2.624916         2.778578        -2.116459
 H         2.176136         2.022575         0.139138
