19
Iteration:  3593charge 0 multiplicity 1
 C         0.032190         0.043155         0.276545
 C         1.162551         0.221692        -0.668403
 C         0.762330        -0.018177        -2.192996
 C         1.694414         0.909165        -2.960651
 C         1.214796         1.341363        -4.309002
 O         2.426347         0.629872        -4.197791
 C         2.584647         1.776000        -1.963838
 C         2.278797         1.203175        -0.616351
 O         2.522223        -0.242201        -0.436860
 H        -0.332167        -0.995347         0.205208
 H         0.454652        -0.054894         1.393971
 H        -0.658537         0.972643         0.522784
 H         0.908796        -1.036001        -2.480390
 H        -0.302314         0.209268        -2.451280
 H         0.407912         0.722001        -4.742685
 H         1.088418         2.395267        -4.530816
 H         3.579328         1.594158        -2.335458
 H         2.373503         2.835372        -2.102786
 H         2.406455         1.761778         0.273478
