19
Iteration:   901
 C        -0.052079         0.367107         0.028997
 C         1.260421         0.144136        -0.761230
 C         1.111633        -0.377131        -2.178100
 C         1.754463         0.872425        -3.054427
 C         0.980653         1.741654        -3.972755
 O         2.121232         0.649990        -4.367626
 C         2.776881         1.476059        -1.988165
 C         2.261406         1.151157        -0.666089
 O         2.493752        -0.206935        -0.087159
 H         0.175438         0.821756         1.087819
 H        -0.690929         1.046487        -0.454093
 H        -0.608175        -0.691089         0.100169
 H         1.701460        -1.311859        -2.293600
 H         0.103618        -0.657318        -2.577529
 H         0.188035         1.321794        -4.488502
 H         1.272260         2.738656        -4.243169
 H         3.675621         0.893369        -2.329114
 H         2.872363         2.541348        -2.038370
 H         2.198149         2.025084         0.005029
