19
Iteration:  3571
 C         0.154812        -0.022793         0.318943
 C         1.149277         0.149490        -0.770991
 C         0.837735         0.011149        -2.220991
 C         1.794905         1.023085        -2.994102
 C         1.206233         1.464721        -4.249511
 O         2.347952         0.438761        -4.143079
 C         2.569638         1.782858        -1.951311
 C         2.188961         1.174443        -0.658775
 O         2.448759        -0.181951        -0.420866
 H        -0.174990        -1.056782         0.419232
 H         0.574497         0.242947         1.375330
 H        -0.601921         0.886803         0.270695
 H         0.947494        -0.962200        -2.651949
 H        -0.253939         0.221181        -2.318548
 H         0.193468         1.137939        -4.527485
 H         1.580101         2.326848        -4.784991
 H         3.628351         1.745350        -2.150265
 H         2.282852         2.823303        -2.065926
 H         2.113023         1.846042         0.160378
