19
Iteration:  4649
 C         0.035621        -0.057516         0.346746
 C         1.164541         0.167773        -0.655007
 C         0.970526        -0.035896        -2.184595
 C         1.642418         1.080985        -3.003802
 C         1.300048         1.488629        -4.341858
 O         2.286920         0.417561        -4.113492
 C         2.455380         1.802979        -1.973094
 C         2.179977         1.255135        -0.570416
 O         2.605343        -0.194710        -0.547824
 H         0.325497        -0.947873         0.999890
 H        -0.194626         0.745009         0.980987
 H        -0.879013        -0.527710        -0.033955
 H         1.081660        -1.059269        -2.486646
 H        -0.118268         0.015755        -2.385804
 H         0.338538         1.325958        -4.907705
 H         1.800975         2.420402        -4.747319
 H         3.625778         1.702103        -2.163105
 H         2.304395         2.903914        -2.035721
 H         2.311035         1.752558         0.327071
