19
Iteration:  1358charge 0 multiplicity 1
 C         0.059085        -0.015240         0.443406
 C         1.131289         0.182669        -0.754409
 C         0.896127        -0.140350        -2.220281
 C         1.688153         0.915910        -3.043123
 C         1.262715         1.639410        -4.255842
 O         2.214851         0.595751        -4.413725
 C         2.789255         1.506806        -2.052817
 C         2.169243         1.246671        -0.592951
 O         2.450035        -0.096569        -0.184422
 H         0.381402         0.577277         1.442125
 H        -0.950843         0.301213         0.162200
 H         0.060401        -1.014370         0.658298
 H         1.194133        -1.093965        -2.645448
 H        -0.156038         0.033582        -2.435178
 H         0.197609         1.438390        -4.607626
 H         1.666680         2.623845        -4.552674
 H         3.610255         0.819253        -2.174946
 H         2.981988         2.510024        -2.253117
 H         2.272098         2.113143         0.071352
