19
Iteration:  1221
 C         0.246880        -0.006833         0.493287
 C         1.110249         0.235611        -0.721943
 C         0.607202         0.090949        -2.224532
 C         1.602945         0.954613        -2.919234
 C         1.521546         1.470426        -4.255328
 O         2.356140         0.282755        -4.073201
 C         2.457790         1.869943        -1.985294
 C         2.232754         1.221435        -0.630187
 O         2.505675        -0.214371        -0.740648
 H         0.605392        -0.082887         1.417346
 H        -0.579503         0.728726         0.381757
 H        -0.185033        -1.101249         0.321167
 H         0.757095        -0.985401        -2.409731
 H        -0.435515         0.501723        -2.245616
 H         0.606984         1.326469        -4.808182
 H         2.059038         2.363781        -4.451394
 H         3.523563         1.964985        -2.269882
 H         1.837613         2.820103        -1.955608
 H         2.521973         1.649112         0.335119
