19
Iteration:    34
 C         0.242619        -0.325600         0.261506
 C         1.129005         0.242009        -0.773912
 C         0.457015         0.744268        -2.092381
 C         1.624281         1.191229        -2.894570
 C         1.678916         1.274206        -4.399175
 O         2.218739         0.145667        -3.714994
 C         2.417451         1.993289        -1.904214
 C         2.385876         1.049637        -0.583129
 O         2.464522        -0.333431        -0.943388
 H         0.376338        -1.422551         0.333863
 H         0.762790         0.112707         1.132047
 H        -0.818672         0.004524         0.329784
 H        -0.090010        -0.093750        -2.493699
 H        -0.238251         1.549720        -1.812151
 H         0.741386         0.974394        -4.825952
 H         2.246895         1.968478        -5.023333
 H         3.441940         1.925918        -2.287795
 H         2.227605         3.045166        -2.063803
 H         3.039348         1.219877         0.258023
