19
Iteration:  4842charge 0 multiplicity 1
 C         0.336310        -0.344913         0.386940
 C         1.049959         0.214740        -0.717185
 C         0.533687         0.339833        -2.167319
 C         1.641496         1.120379        -2.942299
 C         1.558925         1.338793        -4.390546
 O         2.332114         0.215078        -3.877985
 C         2.418884         1.998792        -1.923521
 C         2.220119         1.252703        -0.599201
 O         2.529054        -0.194744        -0.839041
 H         0.444113         0.301701         1.366944
 H        -0.734841        -0.275598         0.109368
 H         0.600666        -1.358979         0.654191
 H         0.206973        -0.621896        -2.631846
 H        -0.385977         0.914554        -2.143682
 H         0.616480         1.152084        -4.901150
 H         2.244991         2.068596        -4.834241
 H         3.443816         2.119105        -2.208051
 H         1.964470         3.029411        -1.762841
 H         2.559354         1.615936         0.438957
