19
Iteration:  1557
 C        -0.082672         0.133562         0.127559
 C         1.258104         0.230518        -0.721390
 C         1.038829        -0.196197        -2.202858
 C         1.766247         0.868613        -2.976457
 C         1.147333         1.676285        -4.081506
 O         2.006756         0.579929        -4.348338
 C         2.800745         1.502887        -2.014702
 C         2.273341         1.251040        -0.618947
 O         2.519264        -0.192446        -0.193854
 H        -0.220607         0.901563         0.943898
 H        -0.940702         0.108055        -0.603168
 H        -0.133626        -0.793551         0.591764
 H         1.640194        -1.115981        -2.282930
 H         0.021071        -0.239040        -2.661442
 H         0.137325         1.485365        -4.413360
 H         1.440536         2.742267        -4.268335
 H         3.737827         1.014111        -2.274489
 H         3.090433         2.505296        -2.320394
 H         2.234086         1.914325         0.211590
