19
Iteration:  4925
 C         0.090808        -0.177894         0.440004
 C         1.176076         0.225803        -0.763961
 C         0.688153         0.154993        -2.186390
 C         1.704967         1.073964        -2.935459
 C         1.356954         1.257573        -4.281660
 O         2.391420         0.420758        -4.040433
 C         2.494191         1.966859        -1.892127
 C         2.233266         1.159383        -0.597370
 O         2.537897        -0.198887        -0.777860
 H         0.500030        -0.506752         1.346522
 H        -0.512587         0.743970         0.716512
 H        -0.664209        -0.969151         0.178136
 H         0.843108        -0.820151        -2.693036
 H        -0.414965         0.541196        -2.184673
 H         0.464164         0.771078        -4.703029
 H         1.575216         2.168857        -4.874491
 H         3.542633         2.134091        -2.198878
 H         2.127943         2.995542        -1.830216
 H         2.595269         1.781125         0.315657
