19
Iteration:  3861
 C         0.243252        -0.444949         0.319979
 C         1.168056         0.276365        -0.663447
 C         0.497460         0.363808        -2.105975
 C         1.574046         1.077432        -2.960997
 C         1.573835         1.261589        -4.482842
 O         2.360150         0.219567        -3.754975
 C         2.353582         2.094507        -2.033819
 C         2.289637         1.249097        -0.670597
 O         2.543940        -0.152441        -0.726681
 H        -0.547914        -1.135320         0.034548
 H         0.819602        -0.771090         1.103971
 H        -0.392512         0.387366         0.771678
 H         0.214051        -0.623212        -2.572671
 H        -0.448894         0.759351        -1.980499
 H         0.785703         0.964495        -5.193386
 H         2.280479         2.044565        -4.780277
 H         3.377805         2.174913        -2.444616
 H         2.094886         3.109898        -1.861211
 H         2.804643         1.797372         0.188306
