19
Iteration:  2491
 C         0.187401         0.013630         0.472465
 C         1.140540         0.194383        -0.722704
 C         0.662424        -0.033339        -2.130867
 C         1.611896         1.017096        -3.007471
 C         1.361926         1.375590        -4.493862
 O         2.526426         0.434427        -4.092654
 C         2.363186         1.887134        -1.959991
 C         2.216404         1.185322        -0.650913
 O         2.517665        -0.202638        -0.504122
 H        -0.364951         0.892962         0.794826
 H        -0.312771        -0.877744         0.268792
 H         0.873367        -0.309520         1.449014
 H         0.774703        -1.025516        -2.377404
 H        -0.294127         0.364323        -2.481835
 H         0.518028         0.994073        -5.066536
 H         1.751923         2.288691        -4.910248
 H         3.375240         1.969481        -2.403645
 H         1.948808         2.882850        -1.681217
 H         2.355353         1.751422         0.257902
