19
Iteration:   194
 C         0.065370         0.220279         0.350653
 C         1.119241         0.203034        -0.771915
 C         0.772062        -0.105160        -2.246339
 C         1.763717         0.947046        -2.997542
 C         1.295654         1.676167        -4.226008
 O         2.223008         0.615027        -4.329827
 C         2.739619         1.612690        -1.907207
 C         2.294197         1.025759        -0.563393
 O         2.419314        -0.368634        -0.380149
 H        -0.729773        -0.459604         0.116420
 H         0.718385        -0.077794         1.328335
 H        -0.425495         1.117830         0.591329
 H         0.781545        -1.117528        -2.735547
 H        -0.277526         0.192609        -2.243887
 H         0.311176         1.372672        -4.599636
 H         1.649759         2.740592        -4.400676
 H         3.728866         1.264522        -2.161077
 H         2.804766         2.733375        -2.105859
 H         2.410745         1.647519         0.289047
