19
Iteration:  3816charge 0 multiplicity 1
 C         0.321065        -0.231584         0.551433
 C         1.162370         0.188108        -0.768186
 C         0.506525         0.361623        -2.208865
 C         1.609932         1.060434        -2.954913
 C         1.517723         1.215425        -4.460389
 O         2.488369         0.280085        -3.856924
 C         2.363229         2.045846        -1.839173
 C         2.151652         1.170231        -0.647508
 O         2.496446        -0.156502        -0.866481
 H        -0.464339        -0.877494         0.248588
 H         0.886876        -0.705860         1.228947
 H        -0.355517         0.589616         0.998770
 H         0.342315        -0.606715        -2.671689
 H        -0.373867         0.920546        -2.307322
 H         0.753392         0.631859        -4.966643
 H         1.891184         2.051417        -5.037841
 H         3.432316         2.126476        -2.080317
 H         1.954764         2.990797        -1.942918
 H         2.442189         1.499062         0.415154
