19
Iteration:  1198
 C         0.209248        -0.188868         0.358300
 C         1.123387         0.186638        -0.745960
 C         0.603162         0.320120        -2.110749
 C         1.555592         1.105754        -2.977138
 C         1.510969         1.373803        -4.473318
 O         2.313132         0.252986        -3.914734
 C         2.438292         1.905964        -1.986762
 C         2.296339         1.198095        -0.666401
 O         2.551247        -0.227930        -0.588398
 H         0.763988        -0.077725         1.208485
 H        -0.719478         0.382511         0.394088
 H         0.011360        -1.331825         0.417623
 H         0.464898        -0.709335        -2.497219
 H        -0.331462         0.939560        -2.043141
 H         0.640820         1.144576        -5.087111
 H         2.164358         2.118371        -4.857427
 H         3.521705         1.966102        -2.274526
 H         1.953675         2.924184        -1.792445
 H         2.706005         1.737819         0.190021
