19
Iteration:   402charge 0 multiplicity 1
 C        -0.065842         0.280470         0.145210
 C         1.194650         0.261984        -0.758263
 C         0.998786        -0.277349        -2.261410
 C         1.776969         0.773486        -3.004898
 C         1.142570         1.825382        -3.910840
 O         2.086860         0.721441        -4.377694
 C         2.859493         1.305885        -2.050139
 C         2.337927         1.177794        -0.653549
 O         2.428138        -0.275501        -0.210643
 H        -0.838370        -0.402770        -0.103506
 H         0.321434         0.088617         1.245443
 H        -0.551133         1.284324         0.074593
 H         1.374185        -1.314015        -2.381200
 H        -0.093129        -0.362630        -2.515329
 H         0.048166         1.659083        -4.208057
 H         1.492951         2.883278        -4.013876
 H         3.746074         0.761381        -2.247309
 H         2.822162         2.443483        -2.241374
 H         2.351194         1.972431         0.112827
