19
Iteration:  1791
 C         0.337884        -0.142851         0.450437
 C         1.079803         0.233798        -0.809428
 C         0.420969         0.427651        -2.156485
 C         1.632581         1.069774        -2.993110
 C         1.538275         1.342527        -4.358749
 O         2.452027         0.273316        -3.833219
 C         2.346910         1.926657        -1.964222
 C         2.273040         1.080692        -0.684436
 O         2.531719        -0.296245        -0.772612
 H         0.939408         0.131064         1.276068
 H        -0.665860         0.281085         0.407806
 H         0.065767        -1.329764         0.587131
 H         0.227661        -0.636465        -2.483015
 H        -0.441129         1.143846        -2.278368
 H         0.677801         0.973254        -4.880287
 H         2.147191         2.158145        -4.773730
 H         3.345214         2.305112        -2.344340
 H         1.750063         2.827112        -1.531928
 H         2.516294         1.564697         0.283966
