19
Iteration:  2615
 C         0.145484        -0.040287         0.401609
 C         1.109557         0.206854        -0.717146
 C         0.855058        -0.105791        -2.158435
 C         1.712606         0.889871        -2.966502
 C         1.277433         1.467533        -4.293045
 O         2.316992         0.558382        -4.279205
 C         2.609591         1.679468        -2.026423
 C         2.130549         1.277208        -0.633342
 O         2.492360        -0.093057        -0.380046
 H        -0.924489        -0.131782        -0.159876
 H         0.451032        -0.937358         1.049419
 H         0.045191         0.833854         0.992034
 H         1.010117        -1.144457        -2.510668
 H        -0.211952         0.016622        -2.193715
 H         0.288939         1.229946        -4.755423
 H         1.599036         2.483299        -4.661072
 H         3.675644         1.205885        -2.001208
 H         2.599618         2.780333        -2.252655
 H         2.285387         2.044954         0.142215
