19
Iteration:  4788
 C         0.140357        -0.300414         0.418599
 C         1.187866         0.174970        -0.649715
 C         0.543741         0.466615        -2.047631
 C         1.615196         1.114571        -2.939554
 C         1.508488         1.275312        -4.464439
 O         2.471941         0.360737        -3.884173
 C         2.320763         1.924778        -1.965834
 C         2.255536         1.149799        -0.632133
 O         2.573106        -0.257012        -0.858361
 H         0.209546         0.366701         1.399742
 H        -0.840968        -0.321994        -0.011708
 H         0.659010        -1.129158         0.790854
 H         0.216760        -0.485913        -2.540050
 H        -0.485073         0.843702        -2.051015
 H         0.673701         0.869871        -5.067904
 H         1.803068         2.156116        -5.054317
 H         3.350393         1.972932        -2.290983
 H         2.083448         2.962831        -1.799110
 H         2.604829         1.752885         0.254043
