19
Iteration:   686charge 0 multiplicity 1
 C         0.182620         0.051158         0.388652
 C         1.101411         0.194743        -0.764885
 C         0.748907         0.026194        -2.142330
 C         1.664782         0.997628        -2.967845
 C         1.439096         1.581107        -4.299336
 O         2.252353         0.504115        -4.257284
 C         2.638220         1.658753        -1.939257
 C         2.234870         1.117410        -0.657672
 O         2.428478        -0.302235        -0.426905
 H        -0.579400         0.754992         0.200238
 H        -0.291568        -0.996830         0.654958
 H         0.810209         0.412354         1.309383
 H         0.678996        -0.928753        -2.628780
 H        -0.273839         0.405180        -2.277786
 H         0.453774         1.290496        -4.757924
 H         1.893224         2.557283        -4.704796
 H         3.660585         1.531948        -2.185645
 H         2.230862         2.699036        -1.857609
 H         2.254437         1.832879         0.166419
