19
Iteration:  1506
 C         0.019391         0.139170         0.303394
 C         1.138994         0.238031        -0.798129
 C         1.028028        -0.347077        -2.216383
 C         1.838835         0.806954        -3.050961
 C         1.095069         1.658722        -3.986532
 O         2.175585         0.773627        -4.435517
 C         2.820435         1.329587        -2.019683
 C         2.160115         1.258675        -0.717800
 O         2.407800        -0.043273        -0.205592
 H         0.295506         0.629321         1.158720
 H        -0.995383         0.496338        -0.004280
 H        -0.113697        -1.037065         0.703462
 H         1.524047        -1.328740        -2.017133
 H        -0.056203        -0.380820        -2.450687
 H         0.094393         1.449883        -4.355071
 H         1.363927         2.715320        -4.059696
 H         3.760904         0.699578        -2.113387
 H         3.110965         2.378367        -2.431373
 H         2.315740         2.017372         0.036455
