19
Iteration:  3209
 C         0.095108         0.005335         0.291254
 C         1.191679         0.197919        -0.751282
 C         0.741384         0.032939        -2.233269
 C         1.662958         1.010129        -2.953688
 C         1.281752         1.406799        -4.332824
 O         2.305600         0.357542        -4.080915
 C         2.479032         1.952973        -1.916049
 C         2.220685         1.170942        -0.582402
 O         2.694111        -0.242788        -0.485908
 H        -0.542668        -0.715756        -0.126302
 H         0.350146        -0.324981         1.251908
 H        -0.521027         1.065286         0.230031
 H         0.984866        -1.019336        -2.478154
 H        -0.246920         0.367367        -2.498553
 H         0.290410         1.025989        -4.652944
 H         1.661863         2.284012        -4.850838
 H         3.517627         1.920197        -2.230049
 H         1.784277         2.904213        -1.867818
 H         2.516414         1.646651         0.417211
