19
Iteration:  2762charge 0 multiplicity 1
 C         0.111865        -0.139907         0.434251
 C         1.126949         0.290910        -0.700789
 C         0.743959        -0.031798        -2.194956
 C         1.679795         0.967424        -3.006959
 C         1.376848         1.602183        -4.335079
 O         2.281481         0.432920        -4.231747
 C         2.526621         1.684525        -2.035011
 C         2.315670         1.249262        -0.618175
 O         2.491325        -0.158581        -0.385827
 H         0.642143        -0.655431         1.113338
 H        -0.283396         0.710951         0.984887
 H        -0.868159        -0.617848        -0.031609
 H         0.840870        -1.075616        -2.568078
 H        -0.319027         0.212640        -2.166673
 H         0.428206         1.423231        -4.858842
 H         1.912104         2.483514        -4.709812
 H         3.549762         1.446528        -2.243314
 H         2.409204         2.778990        -2.125971
 H         2.593264         1.753820         0.349443
