19
Iteration:  4001
 C         0.137254        -0.059886         0.393601
 C         1.112565         0.153835        -0.693526
 C         0.795965         0.018796        -2.127076
 C         1.816439         0.910454        -2.983452
 C         1.353829         1.473585        -4.320195
 O         2.269509         0.401225        -4.216550
 C         2.540896         1.822940        -1.897675
 C         2.106438         1.247229        -0.622127
 O         2.555122        -0.137924        -0.553071
 H        -0.270150        -1.036177         0.297309
 H         0.605720         0.155689         1.283434
 H        -0.746892         0.610442         0.022200
 H         0.834815        -0.927237        -2.463851
 H        -0.338839         0.199398        -2.454776
 H         0.365467         1.133777        -4.583038
 H         1.625435         2.445559        -4.713657
 H         3.591832         2.060461        -2.129616
 H         2.202940         2.923450        -1.947414
 H         2.430326         1.733707         0.388369
