19
Iteration:  3753
 C         0.182092        -0.141378         0.422904
 C         1.115374         0.174464        -0.709654
 C         0.624804         0.224006        -2.141898
 C         1.681064         0.966101        -2.955514
 C         1.539905         1.436328        -4.333929
 O         2.343645         0.282195        -4.011803
 C         2.368277         1.943687        -1.962642
 C         2.221742         1.183557        -0.657465
 O         2.565475        -0.166887        -0.729567
 H         0.085730        -1.257630         0.688244
 H         0.547620         0.356073         1.322826
 H        -0.820745         0.331980         0.067841
 H         0.605634        -0.886473        -2.572121
 H        -0.386727         0.627212        -1.930959
 H         0.604883         1.094531        -4.826583
 H         2.082067         2.313217        -4.747563
 H         3.468501         1.996149        -2.171018
 H         1.800422         2.915781        -1.921147
 H         2.522770         1.538075         0.386604
