19
Iteration:  3008charge 0 multiplicity 1
 C         0.248853        -0.157781         0.473791
 C         1.125757         0.220502        -0.692920
 C         0.507711         0.227812        -2.132397
 C         1.589520         0.964441        -2.980345
 C         1.639348         1.533263        -4.346440
 O         2.347734         0.245224        -3.986080
 C         2.393267         1.888572        -2.055794
 C         2.268092         1.167970        -0.650265
 O         2.464065        -0.193830        -0.714541
 H         1.101148        -0.524838         1.202240
 H        -0.360163         0.656851         0.983299
 H        -0.291317        -1.007494         0.229429
 H         0.586045        -0.821845        -2.283527
 H        -0.510942         0.564051        -2.195920
 H         0.845398         1.384094        -5.069086
 H         2.252691         2.419691        -4.505391
 H         3.406994         2.236542        -2.558628
 H         1.970846         2.979049        -1.860038
 H         2.586068         1.466044         0.257126
