19
Iteration:  2309charge 0 multiplicity 1
 C         0.285234        -0.095547         0.493038
 C         1.095167         0.140710        -0.753439
 C         0.598248         0.194911        -2.175697
 C         1.614019         1.002918        -2.964151
 C         1.506973         1.269738        -4.371416
 O         2.561837         0.371650        -3.903165
 C         2.291668         1.978497        -1.939201
 C         2.176209         1.175177        -0.716183
 O         2.495425        -0.187601        -0.777796
 H        -0.134491         0.972069         0.757092
 H        -0.556506        -0.796790         0.508079
 H         0.916582        -0.401564         1.237316
 H         0.283721        -0.758150        -2.645960
 H        -0.356884         0.741015        -2.016982
 H         0.697524         0.787004        -4.909756
 H         1.938538         2.173253        -4.783651
 H         3.260941         2.340340        -2.337550
 H         1.692864         2.841122        -1.709415
 H         2.391327         1.473684         0.296831
