19
Iteration:  1243
 C         0.211020         0.066725         0.528514
 C         1.046548         0.239490        -0.688964
 C         0.691071        -0.001303        -2.169856
 C         1.733588         0.889559        -2.972038
 C         1.443135         1.484083        -4.312602
 O         2.391864         0.478507        -4.170421
 C         2.455125         1.793468        -1.999874
 C         2.193880         1.156900        -0.637292
 O         2.454620        -0.243982        -0.659401
 H         0.867844         0.026246         1.319495
 H        -0.342439         1.020006         0.627623
 H        -0.365891        -0.935587         0.699157
 H         0.927689        -1.070036        -2.382170
 H        -0.389179         0.308820        -2.224586
 H         0.560604         1.114079        -4.812674
 H         1.799742         2.435119        -4.610815
 H         3.509515         1.548434        -2.214041
 H         2.125893         2.877705        -2.035767
 H         2.320733         1.692619         0.308132
