19
Iteration:  3165charge 0 multiplicity 1
 C         0.123348        -0.159654         0.428576
 C         1.084286         0.287594        -0.696735
 C         0.701993         0.027338        -2.140441
 C         1.765225         0.947187        -2.996404
 C         1.287047         1.444222        -4.333116
 O         2.359472         0.497853        -4.210057
 C         2.576206         1.758840        -2.074122
 C         2.227061         1.260804        -0.620509
 O         2.515767        -0.164176        -0.434658
 H        -0.327252        -1.081482         0.292735
 H         0.637500        -0.335674         1.333950
 H        -0.718476         0.666794         0.643370
 H         0.946570        -0.976934        -2.563429
 H        -0.343802         0.204897        -2.437999
 H         0.377506         1.061960        -4.833302
 H         1.605273         2.459203        -4.564527
 H         3.604104         1.360449        -2.111147
 H         2.544199         2.933626        -2.181270
 H         2.342094         1.896537         0.310206
