19
Iteration:   360charge 0 multiplicity 1
 C        -0.126519         0.463854        -0.128689
 C         1.209072         0.182449        -0.809066
 C         1.223069        -0.251118        -2.319192
 C         1.885678         0.847744        -3.022150
 C         0.928661         1.729380        -3.756864
 O         1.841881         0.779433        -4.393076
 C         3.044173         1.241085        -2.040841
 C         2.393895         1.091038        -0.608830
 O         2.394194        -0.277802         0.003034
 H        -0.679895        -0.439415        -0.455513
 H         0.045826         0.457463         1.109777
 H        -0.761622         1.199670        -0.450490
 H         1.870636        -1.128947        -2.445892
 H         0.216977        -0.601587        -2.709474
 H        -0.144222         1.568699        -3.987123
 H         1.242092         2.750036        -3.897585
 H         3.978518         0.669033        -2.221338
 H         3.420054         2.300023        -2.256946
 H         2.177238         1.869208         0.174013
