19
Iteration:   802charge 0 multiplicity 1
 C        -0.074046         0.145750         0.068454
 C         1.155325         0.226350        -0.755514
 C         1.213432        -0.361194        -2.186505
 C         1.723086         0.786632        -2.993855
 C         1.205975         1.768677        -3.868142
 O         1.966427         0.751437        -4.483256
 C         2.853885         1.287728        -2.149041
 C         2.218353         1.170483        -0.716924
 O         2.421135         0.024952        -0.012716
 H         0.026988         0.768575         1.018175
 H        -0.822073         0.595572        -0.454710
 H        -0.280964        -0.918233         0.312269
 H         1.932605        -1.196000        -2.341849
 H         0.274174        -0.824177        -2.553803
 H         0.204225         1.631082        -4.213745
 H         1.587337         2.743633        -3.832373
 H         3.688977         0.534022        -1.930813
 H         3.278833         2.243510        -2.399977
 H         2.193113         2.041430        -0.064462
