19
Iteration:  2521charge 0 multiplicity 1
 C         0.106369        -0.053382         0.393450
 C         1.147646         0.221952        -0.674358
 C         0.776147        -0.003021        -2.158084
 C         1.691491         0.951220        -3.005518
 C         1.252012         1.390324        -4.320129
 O         2.442241         0.424364        -4.108427
 C         2.500365         1.876181        -2.062955
 C         2.219577         1.283726        -0.683040
 O         2.519211        -0.182736        -0.437555
 H        -0.370040         0.777721         0.767399
 H        -0.660671        -0.815108         0.028475
 H         0.490821        -0.579544         1.309916
 H         1.002550        -1.080708        -2.408194
 H        -0.247313         0.159064        -2.579375
 H         0.433302         1.071836        -4.944432
 H         1.542954         2.410520        -4.591687
 H         3.460213         1.770396        -2.508765
 H         2.089970         2.920528        -2.066230
 H         2.410161         1.816216         0.242333
