19
Iteration:  1921
 C         0.293569        -0.128011         0.411550
 C         1.124759         0.289883        -0.760538
 C         0.605893         0.171034        -2.152931
 C         1.572740         1.031484        -2.905113
 C         1.537497         1.372526        -4.316181
 O         2.422687         0.340834        -3.937833
 C         2.395444         1.925946        -2.038670
 C         2.269751         1.241881        -0.712635
 O         2.408153        -0.314403        -0.674206
 H         0.183007        -1.147653         0.476024
 H         0.893455         0.017381         1.376706
 H        -0.799982         0.351310         0.532323
 H         0.551197        -0.746281        -2.830277
 H        -0.431321         0.533765        -2.102297
 H         0.693343         0.995363        -4.855880
 H         1.854744         2.347170        -4.754864
 H         3.461717         1.974673        -2.279939
 H         2.081067         2.980152        -1.924654
 H         2.474329         1.727951         0.230464
