19
Iteration:  1149
 C         0.345133        -0.403292         0.311867
 C         1.043311         0.360809        -0.737000
 C         0.512014         0.532148        -2.095748
 C         1.635527         1.131806        -2.867528
 C         1.535953         1.161324        -4.298207
 O         2.352704         0.083352        -3.776823
 C         2.513306         1.991858        -1.953869
 C         2.256024         1.263426        -0.632589
 O         2.433845        -0.129898        -0.958303
 H         0.805951        -0.480218         1.446383
 H        -0.726688        -0.130349         0.282836
 H         0.423053        -1.392448        -0.015202
 H         0.192850        -0.308528        -2.722249
 H        -0.196738         1.375394        -2.132321
 H         0.630347         0.805189        -4.865929
 H         1.893144         2.163058        -4.749590
 H         3.590355         1.859344        -2.231163
 H         2.112256         3.029241        -1.971402
 H         2.444174         1.682706         0.379649
