19
Iteration:  2415
 C         0.311594        -0.492308         0.441112
 C         1.130383         0.310673        -0.711696
 C         0.540020         0.410421        -2.139244
 C         1.600615         1.136437        -3.013265
 C         1.558452         1.275977        -4.506486
 O         2.402479         0.178184        -3.775601
 C         2.365106         1.940380        -2.020434
 C         2.216198         1.295308        -0.728092
 O         2.482257        -0.097287        -0.640924
 H        -0.753512        -0.318352         0.205645
 H         0.492485        -1.513460         0.381810
 H         0.510432         0.044278         1.471294
 H         0.277340        -0.430279        -2.655595
 H        -0.261570         1.125635        -1.824560
 H         0.681715         0.900571        -5.022491
 H         2.080995         2.021170        -5.119232
 H         3.429654         1.891461        -2.267381
 H         2.045125         2.978251        -2.150914
 H         2.524308         1.801955         0.171532
