19
Iteration:  4278
 C         0.185412        -0.230121         0.424921
 C         1.112485         0.270423        -0.690709
 C         0.654717         0.127454        -2.151945
 C         1.682163         1.033215        -2.974020
 C         1.404782         1.297487        -4.416495
 O         2.459906         0.422614        -3.957150
 C         2.419420         1.924146        -1.943606
 C         2.237166         1.267683        -0.614509
 O         2.459317        -0.196759        -0.728811
 H        -0.568665        -0.998885         0.087153
 H         0.955962        -0.552762         1.199515
 H        -0.271795         0.583585         0.860919
 H         0.773079        -0.891028        -2.516802
 H        -0.413073         0.541363        -2.367072
 H         0.441147         0.806088        -4.687368
 H         1.721384         2.297014        -4.765874
 H         3.547783         1.929267        -2.192185
 H         1.963375         2.911258        -2.019294
 H         2.642810         1.797885         0.153234
