19
Iteration:  2587charge 0 multiplicity 1
 C         0.100959        -0.182602         0.395009
 C         1.114098         0.288998        -0.669627
 C         0.818597        -0.018989        -2.193973
 C         1.663682         0.888481        -3.010844
 C         1.292762         1.489053        -4.350491
 O         2.285417         0.489571        -4.237383
 C         2.645583         1.692438        -2.083074
 C         2.206866         1.276195        -0.653857
 O         2.504326        -0.063300        -0.253824
 H        -0.698658         0.277960         0.021997
 H         0.143668        -1.266124         0.279075
 H         0.286956         0.215621         1.472226
 H         1.207361        -1.022350        -2.498130
 H        -0.304605        -0.002419        -2.223990
 H         0.418810         1.262574        -4.955010
 H         1.669564         2.484416        -4.553525
 H         3.685756         1.526473        -2.251245
 H         2.375602         2.729393        -2.281168
 H         2.318308         2.096003         0.039722
