19
Iteration:  2800
 C         0.110279        -0.034404         0.296803
 C         1.208884         0.111638        -0.705228
 C         0.769250         0.098547        -2.215810
 C         1.650828         1.026283        -2.968425
 C         1.305026         1.437891        -4.319530
 O         2.312971         0.413027        -4.072098
 C         2.550510         1.863666        -1.932716
 C         2.254229         1.186209        -0.617349
 O         2.524986        -0.252916        -0.536617
 H         0.579374        -0.190235         1.401638
 H        -0.458217         0.934207         0.260322
 H        -0.493455        -0.895264         0.229334
 H         0.462583        -0.900766        -2.590302
 H        -0.202677         0.815621        -2.195766
 H         0.265419         1.125027        -4.508415
 H         1.765395         2.263356        -4.864997
 H         3.608790         1.611138        -2.275437
 H         2.326613         2.928485        -2.029984
 H         2.406653         1.781251         0.242336
