19
Iteration:   318
 C        -0.181709         0.417834        -0.089175
 C         1.174203         0.224742        -0.858820
 C         1.217625        -0.436635        -2.261467
 C         1.799460         0.683586        -2.984544
 C         1.017229         1.780008        -3.561211
 O         1.940201         0.934816        -4.352582
 C         3.025533         1.209053        -2.158570
 C         2.297898         1.064419        -0.783035
 O         2.437916        -0.168366        -0.052113
 H        -0.615402        -0.530487         0.393298
 H        -0.186189         1.364313         0.599252
 H        -0.832292         0.753110        -0.810323
 H         1.892681        -1.282206        -2.201642
 H         0.236774        -0.695321        -2.755902
 H         0.007560         1.667261        -3.883292
 H         1.301150         2.749813        -3.290564
 H         3.938779         0.547623        -2.101274
 H         3.487867         2.137287        -2.522345
 H         2.356009         2.035979        -0.201835
