19
Iteration:  4466
 C         0.263192        -0.157788         0.504239
 C         1.072782         0.214341        -0.722991
 C         0.714651         0.030821        -2.131838
 C         1.604793         1.017682        -3.001220
 C         1.446709         1.423003        -4.427753
 O         2.421322         0.456920        -4.004804
 C         2.425339         1.868792        -2.020176
 C         2.143157         1.218921        -0.667102
 O         2.510796        -0.158197        -0.628268
 H         0.250243        -1.275800         0.677035
 H         0.583474         0.398984         1.364369
 H        -0.857743         0.101929         0.290143
 H         1.031610        -1.119080        -2.235025
 H        -0.439280         0.224573        -2.292063
 H         0.449990         1.021000        -4.839516
 H         2.000974         2.412531        -4.661970
 H         3.450147         1.655265        -2.364120
 H         2.106393         2.929650        -2.090115
 H         2.315660         1.806023         0.261267
