19
Iteration:   446
 C         0.111494         0.076410         0.389516
 C         1.112541         0.218107        -0.729502
 C         0.792399         0.009157        -2.206769
 C         1.755798         0.954940        -3.033075
 C         1.281994         1.735487        -4.221605
 O         2.195969         0.578718        -4.319081
 C         2.805988         1.443884        -1.999292
 C         2.235933         1.156798        -0.592706
 O         2.378137        -0.292624        -0.371015
 H        -0.078379        -0.971310         0.546224
 H         0.484121         0.437336         1.436046
 H        -0.855570         0.575617         0.175242
 H         0.924345        -1.039588        -2.499411
 H        -0.272929         0.256613        -2.466826
 H         0.212269         1.515639        -4.558805
 H         1.771992         2.629112        -4.645588
 H         3.670399         0.833608        -1.918080
 H         3.024412         2.569554        -2.135355
 H         2.623062         1.799059         0.206989
