19
Iteration:  2097charge 0 multiplicity 1
 C        -0.065786        -0.008102         0.326409
 C         1.117101         0.251837        -0.661384
 C         0.974856        -0.118167        -2.193774
 C         1.711665         0.939992        -2.962252
 C         1.175948         1.428216        -4.289299
 O         2.315144         0.515528        -4.242318
 C         2.622696         1.773002        -2.021803
 C         2.234625         1.220850        -0.609553
 O         2.577448        -0.129119        -0.412550
 H        -0.596666         0.945855         0.445538
 H        -0.805573        -0.656510        -0.046473
 H         0.143278        -0.560158         1.401055
 H         1.643309        -0.939424        -2.333627
 H        -0.041712        -0.397555        -2.266986
 H         0.283582         1.105111        -4.830279
 H         1.427865         2.429011        -4.589999
 H         3.662889         1.729267        -1.993332
 H         2.268167         2.761631        -2.275772
 H         2.336382         1.872935         0.288271
