19
Iteration:  1860
 C         0.359534        -0.415417         0.283023
 C         1.121466         0.284636        -0.761994
 C         0.471582         0.515208        -2.095446
 C         1.609166         1.058661        -2.958385
 C         1.589023         1.302879        -4.423090
 O         2.316171         0.137572        -3.777843
 C         2.423931         1.987961        -1.993039
 C         2.300316         1.256714        -0.648803
 O         2.455650        -0.184405        -0.705781
 H         1.024184        -1.254992         0.793732
 H         0.134299         0.408185         0.910825
 H        -0.612880        -0.786194        -0.027515
 H         0.055619        -0.262728        -2.660214
 H        -0.329097         1.256566        -1.835122
 H         0.725014         0.875973        -4.958916
 H         2.138484         2.117634        -4.872995
 H         3.477158         2.094363        -2.332663
 H         1.877475         2.944545        -2.021191
 H         2.510035         1.779859         0.301552
