19
Iteration:  1073
 C         0.281349        -0.087192         0.513068
 C         1.127881         0.236936        -0.804683
 C         0.530873         0.347578        -2.151088
 C         1.612963         1.035047        -2.931718
 C         1.569038         1.291469        -4.370780
 O         2.429672         0.344938        -3.837598
 C         2.355724         1.910660        -1.947226
 C         2.250671         1.119962        -0.690284
 O         2.458509        -0.311986        -0.880061
 H         1.030004        -0.322990         1.421727
 H        -0.358468         0.751556         0.778231
 H        -0.325496        -0.855752         0.394938
 H         0.311232        -0.637916        -2.556190
 H        -0.262524         1.105705        -2.183072
 H         0.776456         0.942526        -5.105721
 H         2.086819         2.265263        -4.690764
 H         3.419213         1.934050        -2.286465
 H         1.753575         2.827157        -1.647744
 H         2.468399         1.519915         0.325252
