19
Iteration:   259charge 0 multiplicity 1
 C        -0.111590         0.207645         0.051048
 C         1.115429         0.215596        -0.837770
 C         1.094042        -0.187458        -2.263136
 C         1.862135         0.842693        -3.015260
 C         1.120905         1.856837        -3.820749
 O         1.922063         0.765788        -4.459915
 C         3.045630         1.185446        -2.081743
 C         2.381099         1.076088        -0.655552
 O         2.356455        -0.144588        -0.034763
 H        -0.133466        -0.723854         0.566178
 H        -0.141086         0.976899         0.898659
 H        -1.044127         0.142293        -0.577700
 H         1.607001        -1.186013        -2.388298
 H         0.060060        -0.336354        -2.519436
 H         0.024903         1.640869        -3.817147
 H         1.410226         2.920695        -4.136918
 H         3.837104         0.478830        -2.012058
 H         3.368114         2.260209        -2.289779
 H         2.303470         1.854638         0.052452
