19
Iteration:  3401charge 0 multiplicity 1
 C         0.420011        -0.151679         0.594422
 C         1.072628         0.199963        -0.776095
 C         0.475647         0.308664        -2.251649
 C         1.558558         1.090257        -2.984582
 C         1.661064         1.331758        -4.414625
 O         2.452372         0.218517        -3.821380
 C         2.258174         1.987101        -1.920145
 C         2.160941         1.161049        -0.648287
 O         2.517032        -0.213173        -0.851703
 H        -0.374311        -1.027471         0.351084
 H         1.061314        -0.604213         1.366199
 H         0.096130         0.748880         0.886422
 H         0.359557        -0.618862        -2.855883
 H        -0.460046         0.954257        -2.240142
 H         0.843251         0.955478        -5.067453
 H         2.190325         2.207617        -4.785535
 H         3.375826         2.025978        -2.070676
 H         1.699944         2.922321        -1.983372
 H         2.265483         1.538033         0.359418
