19
Iteration:  3453
 C         0.147943        -0.149223         0.332050
 C         1.137839         0.264419        -0.718395
 C         0.593969         0.233502        -2.118373
 C         1.591116         1.082610        -2.894733
 C         1.442832         1.287973        -4.344844
 O         2.434520         0.348869        -3.934366
 C         2.429610         1.899707        -1.993853
 C         2.324219         1.182504        -0.658092
 O         2.523283        -0.256858        -0.707939
 H        -0.112452        -1.151256         0.166210
 H         0.803074        -0.140195         1.291404
 H        -0.585364         0.702432         0.496261
 H         0.553665        -0.734664        -2.718820
 H        -0.406683         0.640556        -2.300064
 H         0.464194         0.957153        -4.772151
 H         1.862025         2.164606        -4.842756
 H         3.440920         2.289909        -2.232391
 H         1.813066         2.838630        -1.885383
 H         2.688176         1.656046         0.212976
