19
Iteration:  2054
 C         0.178491        -0.153912         0.287369
 C         1.126489         0.187482        -0.790193
 C         0.767716        -0.011696        -2.263094
 C         1.712933         0.877611        -2.995433
 C         1.263968         1.510909        -4.254468
 O         2.277477         0.436976        -4.239007
 C         2.683321         1.650283        -1.994994
 C         2.079877         1.314650        -0.634410
 O         2.532767         0.005306        -0.214316
 H        -0.571077         0.683650         0.380023
 H        -0.292210        -1.067473         0.202276
 H         0.884846        -0.232565         1.262258
 H         1.058121        -1.011633        -2.459297
 H        -0.196728         0.331034        -2.646196
 H         0.363947         1.270159        -4.784649
 H         1.571809         2.514679        -4.293124
 H         3.641602         1.347846        -2.323253
 H         2.594982         2.728050        -2.016379
 H         2.076590         2.177702         0.060724
