19
Iteration:  2594
 C         0.126207        -0.144481         0.402884
 C         1.126872         0.302226        -0.678384
 C         0.809749        -0.031661        -2.170473
 C         1.636565         0.899399        -3.059286
 C         1.272219         1.524862        -4.332869
 O         2.338872         0.472893        -4.262709
 C         2.605938         1.668269        -2.112549
 C         2.233009         1.300651        -0.630548
 O         2.511676        -0.077605        -0.255533
 H        -1.020239         0.035034         0.039026
 H         0.091101        -1.287187         0.536478
 H         0.148617         0.187216         1.365590
 H         1.105542        -1.092539        -2.427278
 H        -0.238793        -0.071360        -2.362403
 H         0.407701         1.194238        -4.956555
 H         1.578255         2.595929        -4.502424
 H         3.682937         1.402524        -2.110536
 H         2.473990         2.785203        -2.131032
 H         2.289648         2.023170         0.199421
