19
Iteration:  4356
 C         0.402345        -0.344419         0.446537
 C         1.086079         0.245415        -0.785569
 C         0.462084         0.410727        -2.164215
 C         1.617773         1.033260        -2.932856
 C         1.614590         1.270381        -4.342476
 O         2.475909         0.217296        -3.771599
 C         2.245379         2.042159        -1.970389
 C         2.210852         1.204790        -0.642911
 O         2.467201        -0.152547        -0.859071
 H         0.146362        -1.427139         0.255232
 H         1.131881        -0.324563         1.234700
 H        -0.468405         0.235822         0.811708
 H         0.235192        -0.614654        -2.641190
 H        -0.385737         1.170151        -2.160965
 H         0.791319         0.862223        -5.035770
 H         2.163481         2.032497        -5.018129
 H         3.219521         2.393579        -2.407783
 H         1.656660         2.960434        -2.103955
 H         2.602301         1.642865         0.244777
