19
Iteration:  3199charge 0 multiplicity 1
 C         0.059045        -0.035014         0.200487
 C         1.180484         0.226505        -0.680399
 C         0.789594         0.077460        -2.205328
 C         1.662521         0.984996        -2.951304
 C         1.270183         1.363631        -4.270529
 O         2.305363         0.414549        -4.081593
 C         2.442050         1.863276        -1.988594
 C         2.321546         1.142068        -0.586506
 O         2.639835        -0.199293        -0.492192
 H        -0.626374        -0.701679        -0.191308
 H         0.452955        -0.283166         1.140346
 H        -0.551263         0.973503         0.457137
 H         0.968163        -1.010066        -2.526099
 H        -0.313590         0.181803        -2.198150
 H         0.339115         1.021271        -4.763087
 H         1.655919         2.322581        -4.634021
 H         3.502003         2.026856        -2.199061
 H         2.181305         3.019912        -2.092722
 H         2.422600         1.843760         0.358570
