19
Iteration:  4904
 C         0.249326        -0.240853         0.409825
 C         1.133033         0.234201        -0.714325
 C         0.629870         0.211298        -2.158100
 C         1.661358         1.089380        -2.990569
 C         1.417785         1.410240        -4.406859
 O         2.407125         0.309613        -3.929268
 C         2.458280         1.915655        -1.974486
 C         2.170700         1.197502        -0.603364
 O         2.473796        -0.225198        -0.689627
 H         0.981241        -0.478565         1.146988
 H        -0.420717         0.568664         0.812516
 H        -0.251042        -1.205727         0.274067
 H         0.623582        -0.796036        -2.625404
 H        -0.364127         0.716444        -2.358066
 H         0.509025         1.122482        -4.925287
 H         1.871978         2.296895        -4.866504
 H         3.509185         2.078612        -2.213521
 H         2.058453         2.966078        -1.907091
 H         2.593968         1.885116         0.202141
