19
Iteration:  1906
 C         0.332292        -0.197373         0.480696
 C         1.115027         0.236394        -0.742255
 C         0.488128         0.248220        -2.185249
 C         1.618902         1.059083        -2.950800
 C         1.574423         1.384333        -4.386406
 O         2.360487         0.261836        -3.882084
 C         2.457032         1.916494        -1.979344
 C         2.186733         1.229755        -0.647344
 O         2.467525        -0.196334        -0.775305
 H         0.464942        -1.364326         0.511791
 H         0.576900         0.394516         1.465085
 H        -0.671733         0.000757         0.274724
 H         0.497926        -0.856625        -2.375093
 H        -0.496045         0.673414        -2.363651
 H         0.672920         1.191295        -5.046421
 H         2.276162         2.189101        -4.664194
 H         3.495554         1.946499        -2.352741
 H         1.980177         2.888221        -1.929902
 H         2.532728         1.682491         0.307418
