19
Iteration:  3852
 C         0.294489        -0.339712         0.340017
 C         1.135671         0.186242        -0.753625
 C         0.496751         0.413503        -2.133711
 C         1.634012         1.065104        -2.936558
 C         1.533959         1.253213        -4.358768
 O         2.391879         0.199827        -3.755026
 C         2.321493         2.042677        -2.018223
 C         2.306394         1.298125        -0.693144
 O         2.510285        -0.157626        -0.750214
 H        -0.329190        -1.071664        -0.288727
 H         0.865381        -0.986320         1.101492
 H        -0.297517         0.361061         0.916845
 H         0.344089        -0.651543        -2.623241
 H        -0.428037         0.998949        -2.204652
 H         0.710068         0.853783        -4.997955
 H         2.111897         2.090052        -4.828113
 H         3.353067         2.210485        -2.406439
 H         1.856523         3.031763        -1.805148
 H         2.559271         1.775273         0.255549
