19
Iteration:  3722charge 0 multiplicity 1
 C         0.217322        -0.221261         0.363687
 C         1.144043         0.253519        -0.765615
 C         0.644460         0.232828        -2.215836
 C         1.702956         1.028004        -2.961301
 C         1.383433         1.360802        -4.366584
 O         2.342011         0.375502        -4.064791
 C         2.542035         1.829192        -1.968332
 C         2.203737         1.215826        -0.573554
 O         2.460225        -0.149205        -0.519823
 H         0.356517        -1.290593         0.762137
 H         0.518224         0.519119         1.152367
 H        -0.786473        -0.221148         0.068677
 H         0.692458        -0.790658        -2.720049
 H        -0.424502         0.551071        -2.174354
 H         0.409570         0.918148        -4.690479
 H         1.708131         2.240238        -4.962167
 H         3.628115         1.678651        -2.209060
 H         2.366497         2.969565        -1.971832
 H         2.490256         1.739660         0.332178
