19
Iteration:  1316
 C        -0.045272        -0.059208         0.187168
 C         1.113719         0.285743        -0.706611
 C         0.853701        -0.054075        -2.167731
 C         1.799083         0.918387        -2.893683
 C         1.263251         1.556368        -4.107386
 O         2.124833         0.378558        -4.228276
 C         2.753183         1.719211        -2.048516
 C         2.284604         1.257125        -0.603059
 O         2.549877        -0.122562        -0.468749
 H         0.169584         0.187098         1.261061
 H        -0.842636         0.581687        -0.206623
 H        -0.261909        -1.135652         0.216991
 H         1.126295        -1.101881        -2.303825
 H        -0.139822         0.287608        -2.439089
 H         0.158697         1.477809        -4.365679
 H         1.774823         2.474127        -4.417664
 H         3.802013         1.378486        -2.252592
 H         2.551642         2.775341        -2.209948
 H         2.448444         1.815965         0.328919
