19
Iteration:  2386charge 0 multiplicity 1
 C         0.415493        -0.384504         0.299729
 C         1.103819         0.313700        -0.835033
 C         0.465858         0.443250        -2.128895
 C         1.622045         1.067262        -2.905754
 C         1.580817         1.170225        -4.348933
 O         2.380440         0.109362        -3.813889
 C         2.376512         1.954463        -1.898730
 C         2.164271         1.324050        -0.596400
 O         2.515425        -0.035818        -0.808727
 H        -0.740056        -0.215773         0.193868
 H         0.499898        -1.485855         0.197020
 H         0.784843        -0.030477         1.161489
 H         0.111055        -0.475684        -2.699695
 H        -0.346183         1.213171        -1.888344
 H         0.683336         0.882232        -4.933438
 H         2.051038         1.984162        -4.889152
 H         3.463962         1.977970        -2.151144
 H         1.975730         2.945962        -2.095293
 H         2.289871         1.684509         0.419249
