19
Iteration:  3317charge 0 multiplicity 1
 C         0.242090        -0.317823         0.254601
 C         1.212649         0.232579        -0.818573
 C         0.615232         0.411300        -2.161539
 C         1.603571         1.074614        -2.945559
 C         1.480673         1.283078        -4.376026
 O         2.275724         0.145479        -3.860842
 C         2.353738         2.012311        -1.910520
 C         2.270943         1.283337        -0.655830
 O         2.618853        -0.177843        -0.616859
 H         0.287610        -1.385426         0.485066
 H         0.438429         0.212525         1.154584
 H        -0.944880        -0.257647         0.021537
 H         0.282649        -0.484228        -2.633417
 H        -0.332825         0.987500        -2.108381
 H         0.536859         1.042848        -4.885042
 H         2.069953         2.044034        -4.874761
 H         3.424318         2.149532        -2.056814
 H         1.994060         3.044465        -2.064209
 H         2.440973         1.723964         0.352142
