19
Iteration:  4564
 C         0.112202        -0.190250         0.224970
 C         1.163214         0.245159        -0.738736
 C         0.884685        -0.027913        -2.189072
 C         1.679950         0.999670        -2.990235
 C         1.201515         1.438055        -4.280472
 O         2.266549         0.445816        -4.098523
 C         2.573199         1.781947        -2.026884
 C         2.176110         1.310159        -0.566597
 O         2.561241        -0.108244        -0.387303
 H        -0.388112        -1.127515        -0.123271
 H         0.606817        -0.246838         1.176303
 H        -0.672904         0.683746         0.257002
 H         1.495275        -0.920138        -2.355417
 H        -0.171387         0.032333        -2.516466
 H         0.226753         1.259441        -4.765319
 H         1.593040         2.372583        -4.689601
 H         3.538689         1.338664        -2.146939
 H         2.547021         2.878720        -2.119549
 H         2.339363         1.969786         0.249775
