19
Iteration:  4601charge 0 multiplicity 1
 C         0.205956        -0.164569         0.453985
 C         1.088424         0.175778        -0.718334
 C         0.788248        -0.007917        -2.222642
 C         1.818002         0.825445        -3.067698
 C         1.245982         1.549760        -4.248562
 O         2.391735         0.573037        -4.288810
 C         2.529569         1.704149        -2.024866
 C         2.111582         1.281169        -0.669289
 O         2.495635        -0.099567        -0.326927
 H         0.194702        -1.181326         0.822003
 H         0.480477         0.567582         1.285982
 H        -0.858331         0.001532         0.293695
 H         0.773579        -1.162659        -2.324082
 H        -0.320903         0.208428        -2.374617
 H         0.404047         1.156971        -4.821407
 H         1.508827         2.586325        -4.603835
 H         3.610708         1.489232        -1.992983
 H         2.380842         2.748810        -2.370051
 H         2.031946         1.968685         0.284350
