19
Iteration:  2881charge 0 multiplicity 1
 C         0.369610        -0.165499         0.442557
 C         1.119137         0.161545        -0.786046
 C         0.431177         0.352160        -2.183119
 C         1.557779         1.091236        -2.944796
 C         1.685292         1.377026        -4.397242
 O         2.274629         0.232680        -3.897446
 C         2.431476         1.906236        -1.883519
 C         2.221676         1.153762        -0.650069
 O         2.524794        -0.210813        -0.768966
 H         0.462511         0.578043         1.185871
 H        -0.665161        -0.413732         0.190576
 H         0.796864        -1.195705         0.749829
 H        -0.114274        -0.429693        -2.760948
 H        -0.368394         1.009337        -1.840946
 H         0.886861         1.188649        -5.125444
 H         2.360707         2.176196        -4.760800
 H         3.482148         1.915995        -2.089240
 H         2.042909         2.965733        -2.061323
 H         2.379491         1.648431         0.381786
