19
Iteration:  2429
 C         0.276231        -0.330311         0.396987
 C         1.114477         0.271753        -0.658169
 C         0.554659         0.321318        -2.103414
 C         1.557078         1.087307        -3.004686
 C         1.595532         1.227935        -4.460489
 O         2.363293         0.274839        -3.873882
 C         2.386278         1.950239        -2.044765
 C         2.248491         1.303362        -0.619203
 O         2.507070        -0.133230        -0.682565
 H        -0.864325        -0.304910         0.234802
 H         0.500618        -1.379577         0.368351
 H         0.528895        -0.050175         1.341190
 H         0.460964        -0.738850        -2.457368
 H        -0.452394         0.773016        -2.239693
 H         0.756486         0.885390        -5.104057
 H         2.181057         2.041134        -4.901928
 H         3.427103         2.040785        -2.439140
 H         1.999296         2.947964        -1.842524
 H         2.593753         1.862359         0.254579
