19
Iteration:  3570
 C         0.155568        -0.015113         0.315069
 C         1.150607         0.143114        -0.758858
 C         0.835238         0.012017        -2.225157
 C         1.793089         1.019031        -2.995886
 C         1.212364         1.474458        -4.255873
 O         2.342662         0.429673        -4.142846
 C         2.570442         1.782540        -1.942737
 C         2.189630         1.178587        -0.662351
 O         2.449991        -0.178371        -0.423929
 H        -0.165386        -1.105256         0.444158
 H         0.576918         0.225785         1.358168
 H        -0.620958         0.859213         0.288276
 H         0.978680        -0.950861        -2.653723
 H        -0.230181         0.227673        -2.325552
 H         0.194610         1.146292        -4.520109
 H         1.577689         2.347612        -4.793809
 H         3.626128         1.728353        -2.154329
 H         2.261028         2.833097        -2.057490
 H         2.090765         1.847757         0.174537
