19
Iteration:   987
 C         0.060501        -0.063009         0.327284
 C         1.094236         0.175597        -0.742335
 C         0.787721         0.040129        -2.188672
 C         1.776374         0.915437        -3.001121
 C         1.350460         1.677547        -4.221951
 O         2.145520         0.412494        -4.257746
 C         2.702776         1.613070        -2.049873
 C         2.173915         1.246437        -0.642238
 O         2.543810        -0.137017        -0.304167
 H         0.434006         0.122853         1.455898
 H        -0.899140         0.382558         0.174343
 H        -0.038804        -1.141543         0.375588
 H         0.857605        -0.970295        -2.633278
 H        -0.253256         0.362695        -2.324601
 H         0.441326         1.576637        -4.811114
 H         1.919726         2.584418        -4.468128
 H         3.763276         1.246538        -2.102784
 H         2.920877         2.626461        -2.326564
 H         2.318482         1.859604         0.261525
