19
Iteration:  3416
 C         0.296233        -0.135654         0.520618
 C         1.144009         0.122251        -0.732751
 C         0.487382         0.253665        -2.119007
 C         1.552776         1.038411        -2.970708
 C         1.700574         1.358646        -4.412846
 O         2.418459         0.304920        -3.832172
 C         2.266492         1.961565        -2.004664
 C         2.206223         1.176403        -0.720917
 O         2.550670        -0.234217        -0.833059
 H        -0.620469        -0.717370         0.444940
 H         1.002541        -0.489710         1.248722
 H        -0.326073         0.779275         0.939270
 H         0.315113        -0.738258        -2.556062
 H        -0.593290         0.863958        -2.020706
 H         0.917768         1.114881        -5.112825
 H         2.367018         2.199391        -4.686351
 H         3.210557         2.302554        -2.404527
 H         1.640616         2.845337        -1.754827
 H         2.591962         1.713662         0.206306
