19
Iteration:  4844charge 0 multiplicity 1
 C         0.324486        -0.340588         0.406138
 C         1.057040         0.186449        -0.715625
 C         0.531903         0.334329        -2.148209
 C         1.644127         1.109960        -2.945036
 C         1.581376         1.334194        -4.395307
 O         2.311807         0.229612        -3.889793
 C         2.420478         2.003535        -1.930463
 C         2.230372         1.260811        -0.590673
 O         2.525444        -0.181662        -0.844995
 H         0.443407         0.282482         1.351127
 H        -0.713931        -0.308606         0.170447
 H         0.539292        -1.381116         0.620600
 H         0.249349        -0.617303        -2.642810
 H        -0.364965         0.989522        -2.172361
 H         0.649558         1.114253        -4.947188
 H         2.287012         2.101831        -4.752655
 H         3.465195         2.135757        -2.244094
 H         1.980013         2.948227        -1.786289
 H         2.442469         1.618501         0.368210
