19
Iteration:  1087
 C         0.357487        -0.133848         0.451847
 C         1.111709         0.125549        -0.758406
 C         0.393861         0.401650        -2.122560
 C         1.541633         1.093218        -2.970545
 C         1.647603         1.372493        -4.452698
 O         2.455602         0.251604        -3.764694
 C         2.347341         1.923171        -1.977001
 C         2.255045         1.100233        -0.691958
 O         2.490461        -0.277801        -0.814100
 H         1.083264        -0.209179         1.315149
 H        -0.234025         0.715794         0.678741
 H        -0.326609        -1.087172         0.373643
 H        -0.198931        -0.357847        -2.670377
 H        -0.466796         1.068765        -1.882086
 H         0.848557         0.924808        -4.998141
 H         2.246510         2.188198        -4.835662
 H         3.347995         2.319858        -2.357095
 H         1.912118         2.941587        -1.963327
 H         2.647986         1.629854         0.236775
