19
Iteration:  4918
 C         0.176440        -0.216814         0.476496
 C         1.080762         0.193398        -0.733128
 C         0.705889         0.225965        -2.207632
 C         1.727318         1.056225        -2.923054
 C         1.407284         1.303189        -4.339141
 O         2.354157         0.404985        -3.999478
 C         2.450899         1.978163        -1.926463
 C         2.265728         1.193871        -0.653921
 O         2.515283        -0.200985        -0.745905
 H         0.565880        -0.537991         1.520197
 H        -0.527434         0.597928         0.652124
 H        -0.546284        -0.886775         0.071220
 H         0.823285        -0.816301        -2.577964
 H        -0.278447         0.524736        -2.287931
 H         0.472543         0.841716        -4.635715
 H         1.774495         2.090718        -4.961326
 H         3.484560         1.902404        -2.234653
 H         2.075295         3.091292        -1.952636
 H         2.330147         1.442149         0.392902
