19
Iteration:   562charge 0 multiplicity 1
 C         0.359797        -0.321526         0.396494
 C         1.064457         0.423923        -0.769181
 C         0.331189         0.638049        -2.089495
 C         1.579288         1.192431        -2.903960
 C         1.734710         1.266623        -4.352184
 O         2.327362         0.206685        -3.620679
 C         2.481427         1.969289        -1.933386
 C         2.360723         0.987534        -0.762018
 O         2.360021        -0.328774        -1.062201
 H        -0.217522        -1.288964         0.162418
 H         1.004573        -0.609619         1.122699
 H        -0.210876         0.585879         0.955459
 H        -0.031465        -0.364835        -2.422606
 H        -0.547864         1.261266        -1.954170
 H         0.881084         0.984804        -4.959720
 H         2.546933         1.757613        -4.819414
 H         3.534076         1.987593        -2.431854
 H         2.159199         2.945348        -1.637523
 H         2.786678         1.134427         0.252474
