19
Iteration:  3761
 C         0.224129        -0.145566         0.384027
 C         1.130677         0.173876        -0.728149
 C         0.570300         0.211099        -2.140035
 C         1.606041         0.976414        -2.918604
 C         1.562165         1.409423        -4.335292
 O         2.377348         0.308194        -3.984991
 C         2.332648         1.887326        -1.951245
 C         2.284628         1.220361        -0.638476
 O         2.547166        -0.182718        -0.729406
 H         0.052030        -1.183882         0.571272
 H         0.559595         0.297061         1.265095
 H        -0.759425         0.458920         0.339814
 H         0.491415        -0.835187        -2.444816
 H        -0.403264         0.625214        -2.352501
 H         0.651820         1.266157        -4.916109
 H         2.180430         2.227705        -4.705678
 H         3.307501         2.137656        -2.378776
 H         1.798329         2.797165        -1.959863
 H         2.657476         1.718152         0.325349
