19
Iteration:  3708
 C         0.227014        -0.202789         0.338627
 C         1.053040         0.339686        -0.720013
 C         0.658044         0.151418        -2.164722
 C         1.614175         1.060134        -3.001964
 C         1.322384         1.400223        -4.386166
 O         2.408463         0.400870        -4.053417
 C         2.603651         1.755625        -1.999016
 C         2.260927         1.245750        -0.652593
 O         2.478674        -0.185979        -0.430278
 H         0.640603        -1.234023         0.347731
 H         0.257983         0.123544         1.336365
 H        -0.885095        -0.288021        -0.074230
 H         0.601311        -1.004871        -2.445825
 H        -0.318675         0.674052        -2.330917
 H         0.464701         0.958959        -4.915700
 H         1.631354         2.421616        -4.686060
 H         3.637698         1.436732        -2.319285
 H         2.463505         2.852209        -2.022160
 H         2.294482         1.945543         0.267053
