19
Iteration:  3276charge 0 multiplicity 1
 C         0.337530        -0.263348         0.530435
 C         1.055626         0.297278        -0.649516
 C         0.556356         0.186512        -2.142725
 C         1.660745         0.983854        -2.986720
 C         1.522740         1.391181        -4.382791
 O         2.437249         0.371762        -4.024046
 C         2.424978         1.858065        -2.064254
 C         2.131471         1.271048        -0.632578
 O         2.430520        -0.183441        -0.693174
 H         0.461821        -1.294081         0.687225
 H         0.788565         0.389001         1.269785
 H        -0.860262        -0.183891         0.386986
 H         0.618111        -0.867866        -2.480618
 H        -0.366109         0.685283        -2.243311
 H         0.766309         1.000780        -5.065153
 H         1.926877         2.404279        -4.574669
 H         3.438422         1.523546        -2.361339
 H         2.341985         3.024363        -2.027111
 H         2.572876         1.929406         0.201244
