19
Iteration:  2348
 C         0.254879        -0.306419         0.409870
 C         1.135580         0.202854        -0.739191
 C         0.495121         0.298245        -2.094596
 C         1.508388         1.164992        -2.946921
 C         1.669411         1.207117        -4.426619
 O         2.442797         0.233589        -3.780546
 C         2.313547         2.046275        -2.041072
 C         2.291459         1.196876        -0.701842
 O         2.489368        -0.126929        -0.774010
 H        -0.467510         0.340992         0.769825
 H        -0.137244        -1.279604         0.095783
 H         1.028871        -0.469092         1.339154
 H         0.318813        -0.689228        -2.494598
 H        -0.451625         0.858181        -2.102374
 H         0.830009         0.811570        -5.009730
 H         2.121274         2.131507        -4.863648
 H         3.272062         2.309609        -2.471688
 H         1.789016         2.982073        -1.632214
 H         2.613703         1.894004         0.109394
