19
Iteration:  1633charge 0 multiplicity 1
 C         0.053628         0.139338         0.411970
 C         1.068750         0.197687        -0.754420
 C         0.949125        -0.245112        -2.222020
 C         1.832946         0.767713        -2.985748
 C         1.197090         1.610042        -4.069145
 O         2.203871         0.620027        -4.349766
 C         2.754628         1.562274        -1.996792
 C         2.099816         1.268008        -0.700721
 O         2.499470        -0.153272        -0.410214
 H         0.576831        -0.022468         1.482556
 H        -0.364895         1.225363         0.520563
 H        -0.668817        -0.565232         0.182536
 H         1.307240        -1.258948        -2.476316
 H        -0.078992        -0.154547        -2.655339
 H         0.176362         1.487365        -4.444777
 H         1.637887         2.626019        -4.228880
 H         3.826970         1.412981        -1.923832
 H         2.650812         2.596021        -2.320171
 H         2.059134         1.904651         0.201141
