19
Iteration:   575
 C         0.361225        -0.272374         0.351951
 C         1.080031         0.266167        -0.794114
 C         0.400572         0.667582        -2.089335
 C         1.558582         1.158900        -2.895157
 C         1.728910         1.276170        -4.392572
 O         2.281064         0.151950        -3.553770
 C         2.432952         1.901789        -1.915565
 C         2.393924         1.098446        -0.641961
 O         2.373553        -0.301830        -1.117432
 H        -0.450841        -0.866367         0.018128
 H         1.124556        -0.872771         0.851194
 H        -0.186264         0.499592         1.077477
 H        -0.087373        -0.176947        -2.586843
 H        -0.282468         1.501215        -1.945862
 H         0.902172         1.024069        -5.125584
 H         2.458769         2.016867        -4.770077
 H         3.443915         2.098459        -2.318272
 H         1.994950         2.926005        -1.793685
 H         2.975994         1.395224         0.235269
