19
Iteration:   355charge 0 multiplicity 1
 C        -0.075078         0.440501        -0.153306
 C         1.189363         0.234180        -0.806383
 C         1.214633        -0.273403        -2.311195
 C         1.872484         0.821169        -2.983470
 C         0.915795         1.718141        -3.741569
 O         1.833701         0.801098        -4.426466
 C         3.084596         1.275467        -2.023921
 C         2.385871         1.040723        -0.629936
 O         2.383776        -0.252801         0.014968
 H        -0.651640        -0.476309        -0.341570
 H         0.072950         0.509301         0.830086
 H        -0.758059         1.284592        -0.645054
 H         1.828740        -1.189931        -2.464461
 H         0.253956        -0.558625        -2.675797
 H        -0.147664         1.522719        -3.958388
 H         1.239922         2.799758        -3.756164
 H         3.889158         0.519580        -2.052583
 H         3.374751         2.286370        -2.290356
 H         2.205552         1.773833         0.127081
