19
Iteration:    67
 C         0.351610        -0.469758         0.294962
 C         1.012783         0.315591        -0.793574
 C         0.338891         0.775968        -2.058573
 C         1.618597         1.231986        -2.855229
 C         1.739117         1.238196        -4.327218
 O         2.218178         0.115324        -3.502663
 C         2.630146         2.018767        -2.011487
 C         2.384029         1.100544        -0.764376
 O         2.327291        -0.277253        -1.059044
 H         0.681274        -1.521982         0.189052
 H         0.778268        -0.242909         1.290951
 H        -0.765523        -0.470266         0.366706
 H        -0.124124        -0.021927        -2.618666
 H        -0.410508         1.573385        -1.869936
 H         0.878809         0.913845        -4.911058
 H         2.378689         1.945270        -4.834807
 H         3.642384         1.829766        -2.332113
 H         2.251095         3.020157        -1.896318
 H         2.897878         1.345526         0.173155
