19
Iteration:  2967
 C         0.259292        -0.303362         0.405929
 C         1.108875         0.175882        -0.843572
 C         0.499850         0.452052        -2.118818
 C         1.594584         1.129542        -2.940581
 C         1.502854         1.256270        -4.405018
 O         2.363411         0.229613        -3.823362
 C         2.508532         1.998547        -1.908806
 C         2.302221         1.167234        -0.671311
 O         2.502184        -0.202492        -0.795024
 H         0.665635         0.179585         1.296336
 H        -0.768492         0.057618         0.352415
 H         0.269460        -1.358940         0.698494
 H         0.211717        -0.346889        -2.854762
 H        -0.376373         1.176146        -1.916433
 H         0.712489         0.816135        -4.996765
 H         2.006006         2.130331        -4.857686
 H         3.569464         2.038146        -2.122104
 H         2.052061         2.945146        -1.863779
 H         2.347267         1.726164         0.323922
