19
Iteration:  2694
 C         0.055926         0.008231         0.290383
 C         1.151432         0.178474        -0.675432
 C         0.887457        -0.029287        -2.176742
 C         1.683747         0.971301        -2.920530
 C         1.275584         1.493109        -4.322785
 O         2.237749         0.546738        -4.241740
 C         2.618119         1.672981        -2.043780
 C         2.244638         1.210941        -0.660423
 O         2.536549        -0.195994        -0.309957
 H         0.080175        -1.094895         0.564863
 H         0.140334         0.440909         1.324211
 H        -0.902012         0.223465        -0.095618
 H         0.968216        -1.088608        -2.535177
 H        -0.116089         0.209819        -2.261166
 H         0.281538         1.139391        -4.679115
 H         1.520120         2.521894        -4.610942
 H         3.623308         1.463765        -2.393359
 H         2.525620         2.794184        -1.994279
 H         2.340678         2.030419         0.004950
