19
Iteration:  2554
 C         0.118181        -0.109007         0.286774
 C         1.171019         0.232670        -0.713183
 C         0.829731         0.020575        -2.246995
 C         1.752718         0.921675        -2.981031
 C         1.228511         1.445842        -4.256145
 O         2.258423         0.307139        -4.186794
 C         2.596959         1.806971        -1.902101
 C         2.093556         1.338426        -0.584383
 O         2.595367        -0.057176        -0.443193
 H        -0.460620         0.717494         0.349422
 H        -0.603308        -0.867598        -0.126194
 H         0.615641        -0.337584         1.317205
 H         1.173291        -1.027692        -2.502398
 H        -0.293695         0.122437        -2.506943
 H         0.296672         1.142150        -4.698434
 H         1.742319         2.366624        -4.456409
 H         3.598689         1.593976        -2.161358
 H         2.513759         2.803135        -2.313823
 H         2.121492         1.923021         0.328495
