19
Iteration:  4952charge 0 multiplicity 1
 C         0.160745        -0.066110         0.288678
 C         1.245661         0.226818        -0.766405
 C         0.694861         0.123490        -2.143031
 C         1.643950         0.969022        -2.940069
 C         1.295614         1.374814        -4.322307
 O         2.415031         0.513475        -4.016299
 C         2.366615         1.862996        -1.983752
 C         2.278949         1.132808        -0.599365
 O         2.562735        -0.275810        -0.574030
 H         0.476541        -0.378112         1.363460
 H        -0.400623         0.844168         0.369480
 H        -0.444955        -0.900060        -0.062015
 H         0.622452        -0.898346        -2.515054
 H        -0.257583         0.539154        -2.111993
 H         0.500119         0.819257        -4.827593
 H         1.628294         2.336404        -4.724273
 H         3.405899         1.976998        -2.355348
 H         1.991592         2.957511        -1.919046
 H         2.457162         1.731161         0.206883
