19
Iteration:  3920charge 0 multiplicity 1
 C         0.329639        -0.202858         0.465732
 C         1.068853         0.218622        -0.750739
 C         0.587487         0.300345        -2.197242
 C         1.752257         0.965980        -2.926225
 C         1.453769         1.337830        -4.295613
 O         2.417137         0.292627        -4.003520
 C         2.415669         1.918315        -1.928540
 C         2.145124         1.229932        -0.676583
 O         2.461324        -0.177115        -0.755836
 H         0.559329        -1.320030         0.528708
 H         0.703951         0.290892         1.496670
 H        -0.672785         0.107475         0.427847
 H         0.530308        -0.648720        -2.793292
 H        -0.291595         0.944348        -2.107292
 H         0.475134         1.122447        -4.761084
 H         1.968116         2.207957        -4.744453
 H         3.466112         1.991555        -2.189117
 H         1.801398         2.841190        -1.872563
 H         2.223997         1.710191         0.250789
