19
Iteration:  1525charge 0 multiplicity 1
 C         0.045102         0.139117         0.289550
 C         1.130681         0.199483        -0.789062
 C         1.025331        -0.268242        -2.278381
 C         1.849733         0.763898        -3.003734
 C         1.172609         1.660073        -3.910159
 O         2.082207         0.666602        -4.413666
 C         2.889672         1.498811        -2.081825
 C         2.173265         1.289312        -0.729586
 O         2.364453        -0.130969        -0.180265
 H         0.180816         0.903706         1.090670
 H        -1.038460         0.307199        -0.018053
 H         0.129792        -0.821964         0.839105
 H         1.538959        -1.234268        -2.507711
 H         0.110283        -0.350787        -2.903730
 H         0.163946         1.367519        -4.123540
 H         1.494230         2.732277        -3.906852
 H         3.808110         0.892762        -2.181337
 H         2.885258         2.566811        -2.389105
 H         1.986800         2.003115         0.022470
