19
Iteration:   405
 C        -0.048590         0.262495         0.166844
 C         1.172077         0.261836        -0.743409
 C         0.985829        -0.275536        -2.278576
 C         1.774052         0.776644        -3.016245
 C         1.153049         1.832705        -3.912838
 O         2.111496         0.713643        -4.376806
 C         2.821255         1.305479        -2.040633
 C         2.345033         1.183843        -0.669385
 O         2.425581        -0.263413        -0.214122
 H        -0.897595        -0.429121        -0.084881
 H         0.381198         0.145443         1.266654
 H        -0.458696         1.193369         0.078992
 H         1.292115        -1.305056        -2.455408
 H        -0.123078        -0.264433        -2.490293
 H         0.117994         1.642991        -4.123543
 H         1.453893         2.845961        -4.076727
 H         3.815977         0.809300        -2.206227
 H         2.843583         2.366688        -2.288223
 H         2.396370         1.942166         0.147214
