19
Iteration:  4388charge 0 multiplicity 1
 C         0.346028        -0.437030         0.326542
 C         1.025506         0.259184        -0.690594
 C         0.541197         0.409504        -2.123274
 C         1.517504         1.218899        -2.903681
 C         1.543973         1.206288        -4.407972
 O         2.415585         0.247247        -3.762311
 C         2.430229         1.972319        -2.003083
 C         2.201896         1.310163        -0.626046
 O         2.523112        -0.106042        -0.821412
 H         0.653132        -1.548908         0.334512
 H         0.637264        -0.113229         1.320268
 H        -0.745817        -0.456340         0.268057
 H         0.424738        -0.610325        -2.594145
 H        -0.587384         0.620992        -2.144015
 H         0.714222         0.618386        -4.949265
 H         2.090668         1.892284        -5.152777
 H         3.462333         1.597110        -2.319343
 H         2.356388         3.038830        -2.142304
 H         2.547570         1.761088         0.244153
