19
Iteration:   134
 C         0.241787        -0.097533         0.374905
 C         1.130076         0.234210        -0.721256
 C         0.504024         0.422505        -2.110023
 C         1.635255         1.061426        -2.915022
 C         1.565334         1.466750        -4.352719
 O         2.303963         0.295059        -3.967811
 C         2.509764         1.790601        -1.921258
 C         2.311251         1.104004        -0.634592
 O         2.436536        -0.365314        -0.798769
 H        -0.457281        -0.873477        -0.039803
 H         0.666363        -0.591709         1.164969
 H        -0.272913         0.881980         0.743267
 H         0.382026        -0.506402        -2.657080
 H        -0.418740         1.024018        -1.943332
 H         0.675850         1.260915        -5.008528
 H         2.073052         2.402921        -4.596192
 H         3.606863         1.790049        -2.141292
 H         2.140541         2.801109        -1.809977
 H         2.833957         1.459022         0.290389
