19
Iteration:  4543charge 0 multiplicity 1
 C         0.017447        -0.152338         0.192002
 C         1.237172         0.234503        -0.728388
 C         0.881726        -0.078358        -2.139415
 C         1.652573         0.990982        -2.970217
 C         1.279933         1.449746        -4.256662
 O         2.227179         0.426952        -4.151876
 C         2.529669         1.856864        -2.001990
 C         2.320001         1.249357        -0.632043
 O         2.577159        -0.099241        -0.351965
 H        -0.520898        -0.875704        -0.411453
 H         0.366362        -0.642787         1.089034
 H        -0.673718         0.757584         0.416719
 H         1.299368        -1.122788        -2.404991
 H        -0.246423         0.114344        -2.222348
 H         0.351045         1.083415        -4.760274
 H         1.538079         2.384614        -4.763378
 H         3.563288         1.987874        -2.254667
 H         2.020017         2.829854        -1.981654
 H         2.268667         1.953275         0.184264
