19
Iteration:  3078
 C         0.064782        -0.092993         0.323396
 C         1.109078         0.247356        -0.716547
 C         0.801050         0.125909        -2.088379
 C         1.716894         1.053324        -2.954232
 C         1.237173         1.379268        -4.322169
 O         2.332348         0.418036        -4.135031
 C         2.584862         1.836938        -1.994855
 C         2.312803         1.143405        -0.624837
 O         2.526288        -0.240381        -0.513165
 H         0.420605        -0.931039         0.774779
 H        -0.162626         0.706038         0.974638
 H        -0.916415        -0.343213        -0.252563
 H         0.835701        -0.890398        -2.651453
 H        -0.279325         0.501341        -2.202895
 H         0.285061         1.039352        -4.770605
 H         1.583440         2.384887        -4.618103
 H         3.587404         2.027926        -2.321337
 H         2.302840         2.902620        -2.013560
 H         2.542029         1.756585         0.368034
