19
Iteration:   799
 C        -0.067503         0.150274         0.077349
 C         1.152722         0.215320        -0.767074
 C         1.218646        -0.379801        -2.184093
 C         1.721582         0.773377        -2.992220
 C         1.200965         1.765310        -3.895273
 O         1.972879         0.745211        -4.492433
 C         2.853893         1.313534        -2.116197
 C         2.221345         1.190476        -0.713788
 O         2.417978         0.005777        -0.017586
 H        -0.020769         0.800378         1.099875
 H        -0.999077         0.564459        -0.496598
 H        -0.183861        -0.852977         0.377854
 H         1.929923        -1.195653        -2.372393
 H         0.248609        -0.737148        -2.524236
 H         0.098116         1.752996        -4.171773
 H         1.591094         2.796703        -3.828191
 H         3.658216         0.580866        -2.008894
 H         3.411701         2.212046        -2.397670
 H         2.229755         2.052531        -0.038212
