19
Iteration:  2343
 C         0.298927        -0.278395         0.402411
 C         1.148008         0.215095        -0.702431
 C         0.480819         0.311485        -2.132664
 C         1.477292         1.129216        -2.968603
 C         1.655027         1.222691        -4.427892
 O         2.481849         0.256630        -3.781597
 C         2.283755         2.032469        -2.032213
 C         2.265522         1.200700        -0.704886
 O         2.498657        -0.161438        -0.749437
 H        -0.486125         0.493632         0.785758
 H        -0.220823        -1.251361         0.070360
 H         0.949896        -0.470450         1.157412
 H         0.338098        -0.775643        -2.430457
 H        -0.476048         0.862360        -1.995279
 H         0.829998         0.842413        -5.060009
 H         2.102801         2.099545        -4.892300
 H         3.267443         2.284823        -2.492581
 H         1.882603         2.913075        -1.570540
 H         2.665664         1.795780         0.102863
