19
Iteration:  4517charge 0 multiplicity 1
 C         0.077200        -0.074964         0.417244
 C         1.208766         0.172295        -0.691308
 C         0.856044        -0.022952        -2.190686
 C         1.732394         0.933011        -3.041138
 C         1.301988         1.430604        -4.284460
 O         2.354779         0.483346        -4.274977
 C         2.454294         1.830121        -1.968655
 C         2.108396         1.244432        -0.602399
 O         2.589941        -0.160666        -0.418186
 H        -0.598216        -0.862535        -0.068270
 H         0.509473        -0.423728         1.384770
 H        -0.471197         0.849653         0.502410
 H         0.990243        -1.038535        -2.430938
 H        -0.131223         0.378126        -2.260363
 H         0.420972         1.006871        -4.769266
 H         1.370312         2.461877        -4.616839
 H         3.584096         2.034589        -2.064614
 H         1.872976         2.741070        -2.128319
 H         2.328214         1.857443         0.258885
