19
Iteration:  2899charge 0 multiplicity 1
 C         0.300633        -0.330935         0.386777
 C         1.142142         0.238146        -0.742910
 C         0.519934         0.498563        -2.132665
 C         1.688437         1.102564        -2.980675
 C         1.615766         1.363757        -4.352324
 O         2.259615         0.144846        -3.799616
 C         2.405635         1.947702        -1.966844
 C         2.215899         1.220937        -0.632283
 O         2.511217        -0.226935        -0.868084
 H         0.350011         0.495480         1.246186
 H        -0.785231        -0.461396         0.138320
 H         0.660381        -1.142318         0.861286
 H         0.225740        -0.467040        -2.545705
 H        -0.507600         1.051952        -2.053712
 H         0.730671         1.198994        -4.959652
 H         2.366849         2.092200        -4.645936
 H         3.451971         1.912256        -2.404781
 H         1.864972         2.841826        -1.790223
 H         2.498230         1.613986         0.266731
