19
Iteration:  1483charge 0 multiplicity 1
 C        -0.043926         0.106831         0.203230
 C         1.193539         0.209036        -0.681039
 C         1.037172        -0.294006        -2.238338
 C         1.696262         0.870890        -2.962014
 C         1.095055         1.622795        -4.067640
 O         2.151052         0.751160        -4.358512
 C         2.826118         1.412426        -2.147543
 C         2.256753         1.201274        -0.743756
 O         2.468288        -0.069869        -0.069824
 H         0.119585         0.326712         1.220703
 H        -0.778031         0.813615        -0.282101
 H        -0.549957        -1.018257         0.176789
 H         1.630966        -1.239417        -2.360499
 H        -0.050048        -0.309516        -2.434034
 H         0.142423         1.379290        -4.496733
 H         1.330183         2.707041        -4.178602
 H         3.745824         0.751895        -2.156274
 H         3.241993         2.427067        -2.513321
 H         2.371908         2.041469        -0.086957
