19
Iteration:  3384
 C         0.423973        -0.248449         0.468302
 C         1.039919         0.215312        -0.838633
 C         0.507570         0.359866        -2.225189
 C         1.684413         1.044907        -2.917536
 C         1.588770         1.236301        -4.429492
 O         2.431809         0.263444        -3.791160
 C         2.367416         1.978956        -1.902674
 C         2.113721         1.236884        -0.644596
 O         2.409344        -0.173006        -0.844769
 H        -0.106779        -1.152117         0.483043
 H         1.341478        -0.525391         0.985670
 H         0.005130         0.631712         1.189181
 H         0.187572        -0.637615        -2.484654
 H        -0.494148         0.858261        -2.181685
 H         0.738800         0.901895        -5.011584
 H         2.181276         2.043035        -4.890809
 H         3.329013         2.213846        -2.312948
 H         1.956153         2.984168        -1.651612
 H         2.539599         1.664847         0.304544
