19
Iteration:  3676charge 0 multiplicity 1
 C         0.092026        -0.183414         0.413741
 C         1.108322         0.202053        -0.641389
 C         0.771349         0.032717        -2.156521
 C         1.675215         0.981125        -2.999108
 C         1.380822         1.518481        -4.297054
 O         2.337451         0.337267        -4.240558
 C         2.615848         1.770608        -1.966441
 C         2.165196         1.288802        -0.637147
 O         2.508279        -0.060755        -0.492436
 H        -0.156468        -1.282476         0.389857
 H         0.483491         0.065219         1.310205
 H        -0.792192         0.236694         0.014265
 H         0.746579        -1.086958        -2.494418
 H        -0.237490         0.496953        -2.288470
 H         0.385025         1.353722        -4.752801
 H         1.848546         2.485389        -4.567251
 H         3.650131         1.486992        -2.315252
 H         2.426027         2.878646        -2.078231
 H         2.262818         1.937797         0.298476
