19
Iteration:  2650
 C         0.113973         0.081138         0.285418
 C         1.119654         0.223917        -0.779120
 C         0.932699        -0.142756        -2.192625
 C         1.732639         0.928270        -2.971903
 C         1.223222         1.491966        -4.161417
 O         2.264364         0.491064        -4.222303
 C         2.557098         1.745073        -2.020175
 C         2.215175         1.204490        -0.639708
 O         2.497728        -0.155179        -0.400406
 H        -0.790749        -0.643804         0.107406
 H         0.461026        -0.414059         1.268575
 H        -0.340422         0.973704         0.582459
 H         1.303856        -1.159911        -2.551818
 H        -0.074543         0.046763        -2.413282
 H         0.199109         1.171429        -4.438591
 H         1.689200         2.401902        -4.589861
 H         3.655547         1.622411        -2.023541
 H         2.453853         2.856139        -2.140485
 H         2.366202         1.707670         0.295858
