19
Iteration:  3152
 C         0.199005        -0.140666         0.487784
 C         1.063459         0.210337        -0.724355
 C         0.805293         0.062785        -2.232631
 C         1.647548         0.962961        -3.010794
 C         1.344266         1.491596        -4.322225
 O         2.350083         0.455841        -4.272004
 C         2.621508         1.650107        -1.936094
 C         2.117256         1.245816        -0.623212
 O         2.465265        -0.085138        -0.437840
 H        -0.129673        -1.208173         0.424509
 H         0.922129         0.077137         1.308268
 H        -0.710070         0.539452         0.653418
 H         0.840894        -0.992140        -2.370074
 H        -0.212539         0.365051        -2.339240
 H         0.392841         1.154238        -4.739315
 H         1.640794         2.479154        -4.685759
 H         3.676772         1.470065        -2.269701
 H         2.574563         2.801070        -2.075157
 H         2.227455         1.909525         0.166763
