19
Iteration:  2089charge 0 multiplicity 1
 C        -0.067497        -0.078823         0.295116
 C         1.132501         0.216165        -0.622348
 C         0.933063        -0.144522        -2.102568
 C         1.727241         0.951560        -2.994705
 C         1.205778         1.427264        -4.294353
 O         2.293848         0.517108        -4.254325
 C         2.652790         1.769510        -2.041452
 C         2.194458         1.284105        -0.651846
 O         2.575367        -0.089979        -0.401292
 H        -0.501644         1.005885         0.535539
 H        -0.814383        -0.693945        -0.109793
 H         0.258445        -0.388572         1.314598
 H         1.328685        -1.134813        -2.366061
 H        -0.153156        -0.338797        -2.501589
 H         0.335992         1.137884        -4.874836
 H         1.544288         2.444278        -4.384969
 H         3.771477         1.627348        -2.166966
 H         2.514339         2.874467        -1.944190
 H         2.322388         1.853264         0.314505
