19
Iteration:  1777
 C         0.346202        -0.124852         0.496186
 C         1.120743         0.207508        -0.727705
 C         0.507915         0.317734        -2.188587
 C         1.545080         1.068741        -2.937317
 C         1.643818         1.377323        -4.446101
 O         2.407952         0.329204        -3.951465
 C         2.345436         1.912223        -1.945591
 C         2.303601         1.115660        -0.680392
 O         2.423531        -0.337790        -0.701857
 H         0.719216         0.428411         1.357087
 H        -0.740977         0.301202         0.546458
 H         0.451358        -1.198141         0.697538
 H         0.123561        -0.590429        -2.795088
 H        -0.431708         0.886510        -1.933493
 H         0.799251         1.154813        -5.162346
 H         2.158702         2.300100        -4.769511
 H         3.341080         2.237544        -2.275448
 H         1.704649         2.853726        -1.917964
 H         2.669602         1.578278         0.239332
