19
Iteration:  2537
 C         0.065966        -0.076121         0.324011
 C         1.153474         0.228867        -0.760256
 C         0.833648        -0.053730        -2.153914
 C         1.724779         0.921332        -2.926423
 C         1.331981         1.383927        -4.278783
 O         2.293450         0.415291        -4.166361
 C         2.542045         1.815008        -2.015208
 C         2.168592         1.265778        -0.598265
 O         2.552786        -0.055030        -0.513279
 H        -0.364836         0.976744         0.640704
 H        -0.589428        -0.814656        -0.092347
 H         0.583166        -0.515072         1.197156
 H         0.980222        -1.077772        -2.451751
 H        -0.229171         0.238452        -2.166832
 H         0.309436         0.986751        -4.503170
 H         1.578008         2.297384        -4.841968
 H         3.662437         1.775667        -1.873529
 H         2.253978         2.882487        -1.983542
 H         2.285105         1.985840         0.233295
