19
Iteration:  3287
 C         0.312242        -0.272381         0.507397
 C         1.100259         0.257416        -0.717663
 C         0.596875         0.277133        -2.172840
 C         1.620657         1.022270        -2.980442
 C         1.501353         1.383232        -4.402481
 O         2.410678         0.270973        -4.005182
 C         2.438305         1.888484        -1.954876
 C         2.144460         1.304053        -0.670246
 O         2.480840        -0.186762        -0.694700
 H         0.713033        -1.239351         0.646129
 H         0.454132         0.164367         1.506194
 H        -0.873665        -0.130572         0.468929
 H         0.434803        -0.767312        -2.522374
 H        -0.392738         0.633680        -2.240029
 H         0.580145         1.113994        -4.934218
 H         2.023627         2.263479        -4.832605
 H         3.550029         1.787958        -2.002352
 H         2.246633         3.016633        -2.167335
 H         2.281227         1.804528         0.346257
