19
Iteration:   673
 C         0.166296         0.004194         0.431925
 C         1.117662         0.201077        -0.709543
 C         0.628513         0.155196        -2.205595
 C         1.683705         0.968526        -2.979474
 C         1.422244         1.570876        -4.300644
 O         2.338146         0.400762        -4.226381
 C         2.592873         1.743345        -1.963784
 C         2.221759         1.152430        -0.570263
 O         2.453616        -0.303207        -0.557206
 H        -0.825619         0.338803         0.331106
 H         0.139037        -1.091047         0.578860
 H         0.584471         0.501533         1.422860
 H         0.630900        -0.902160        -2.471239
 H        -0.385760         0.578218        -2.188338
 H         0.437912         1.407039        -4.773054
 H         1.837617         2.557392        -4.535004
 H         3.656801         1.435335        -2.174352
 H         2.632714         2.810815        -2.111445
 H         2.475770         1.568975         0.400463
