19
Iteration:   411charge 0 multiplicity 1
 C         0.004058         0.210075         0.220042
 C         1.123607         0.209763        -0.737012
 C         0.924502        -0.241648        -2.282370
 C         1.770519         0.807520        -3.029131
 C         1.190613         1.789648        -3.916332
 O         2.148983         0.713270        -4.377938
 C         2.788016         1.326195        -2.052200
 C         2.322876         1.147178        -0.681192
 O         2.413556        -0.214342        -0.223159
 H        -0.760253        -0.493617         0.038333
 H         0.365624         0.230963         1.234826
 H        -0.449580         1.332115         0.121525
 H         1.221541        -1.285341        -2.531576
 H        -0.117811        -0.023075        -2.502761
 H         0.087816         1.554364        -4.115849
 H         1.546205         2.834346        -4.144334
 H         3.811417         0.986274        -2.098201
 H         3.094810         2.381324        -2.386584
 H         2.553403         1.833476         0.122359
