19
Iteration:  3265charge 0 multiplicity 1
 C         0.338182        -0.196035         0.550127
 C         1.025882         0.241742        -0.729113
 C         0.564934         0.111810        -2.122627
 C         1.565126         0.934058        -2.963461
 C         1.508782         1.417499        -4.388854
 O         2.489890         0.460753        -4.019039
 C         2.490499         1.769350        -2.059666
 C         2.216546         1.250703        -0.692026
 O         2.400011        -0.118657        -0.645678
 H         0.398937        -1.248206         0.605309
 H         0.650590         0.190132         1.515808
 H        -0.801981         0.145197         0.537915
 H         0.435076        -0.954765        -2.404365
 H        -0.386532         0.501549        -2.364917
 H         0.690037         1.115521        -5.058090
 H         1.911632         2.414810        -4.657980
 H         3.514369         1.852712        -2.416839
 H         2.088743         2.865332        -2.195740
 H         2.592062         1.616768         0.321714
