19
Iteration:  1999charge 0 multiplicity 1
 C         0.128862        -0.091361         0.299296
 C         1.069946         0.270888        -0.728395
 C         0.758498        -0.075166        -2.180503
 C         1.665328         0.955596        -2.914324
 C         1.330166         1.483137        -4.316960
 O         2.327825         0.439727        -4.128212
 C         2.578019         1.781717        -2.033240
 C         2.268287         1.245946        -0.601124
 O         2.515262        -0.134745        -0.461623
 H        -0.851032        -0.346011        -0.045895
 H         0.537730        -0.917387         0.752911
 H         0.071896         0.620318         1.265544
 H         0.986619        -1.113374        -2.469866
 H        -0.271975         0.130434        -2.526107
 H         0.322354         1.361495        -4.658119
 H         1.766741         2.401092        -4.600065
 H         3.536451         1.730254        -2.547967
 H         2.237400         2.810026        -1.898008
 H         2.437481         1.915273         0.251473
