19
Iteration:  4911charge 0 multiplicity 1
 C         0.222680        -0.225166         0.460107
 C         1.068897         0.189398        -0.699915
 C         0.696851         0.233437        -2.187506
 C         1.708483         1.077747        -2.911033
 C         1.398040         1.379030        -4.413764
 O         2.387744         0.342118        -3.955134
 C         2.433835         1.965306        -1.968659
 C         2.236690         1.207233        -0.648647
 O         2.494582        -0.215957        -0.717308
 H         0.793775        -0.551976         1.356671
 H        -0.433232         0.616633         0.672441
 H        -0.386011        -1.102465         0.071813
 H         0.681121        -0.792400        -2.542660
 H        -0.343707         0.613607        -2.474625
 H         0.392840         0.977621        -4.726861
 H         1.871426         2.221595        -4.970322
 H         3.537085         1.889167        -2.221566
 H         2.073210         2.946824        -1.955704
 H         2.365017         1.558791         0.364818
