19
Iteration:   579charge 0 multiplicity 1
 C         0.342149        -0.256779         0.374862
 C         1.126210         0.236792        -0.799337
 C         0.401031         0.681812        -2.097413
 C         1.568616         1.161271        -2.894013
 C         1.739678         1.265414        -4.378672
 O         2.261749         0.129408        -3.580552
 C         2.415112         1.913388        -1.919354
 C         2.375782         1.116882        -0.655603
 O         2.378827        -0.308276        -1.102678
 H        -0.467791        -0.858055        -0.095512
 H         1.096560        -1.033623         0.869521
 H        -0.056927         0.458445         0.988432
 H        -0.085496        -0.127158        -2.647575
 H        -0.246862         1.579168        -1.929297
 H         0.915675         0.943537        -5.034463
 H         2.378394         2.150506        -4.702555
 H         3.413680         2.204115        -2.177142
 H         2.117705         3.029703        -1.783163
 H         2.903820         1.395512         0.258379
