19
Iteration:  4808charge 0 multiplicity 1
 C         0.250031        -0.376519         0.366448
 C         1.156438         0.267072        -0.757853
 C         0.541160         0.364424        -2.152305
 C         1.590863         1.153464        -2.884915
 C         1.435483         1.171028        -4.387683
 O         2.435664         0.388468        -3.795523
 C         2.520647         2.033580        -1.987816
 C         2.268016         1.140152        -0.660711
 O         2.462945        -0.246065        -0.800195
 H         0.156253         0.441292         1.186654
 H        -0.769867        -0.334153        -0.113520
 H         0.546015        -1.344850         0.788581
 H         0.075807        -0.500926        -2.670700
 H        -0.244018         1.082081        -1.930954
 H         0.581798         0.752800        -4.905678
 H         1.828838         2.009921        -4.958279
 H         3.445384         2.256957        -2.466076
 H         1.998325         3.046237        -1.766867
 H         2.708354         1.589416         0.330010
