19
Iteration:  1180charge 0 multiplicity 1
 C         0.284025        -0.324136         0.355163
 C         1.136011         0.225398        -0.717286
 C         0.477674         0.489947        -2.145474
 C         1.570188         1.193211        -2.938256
 C         1.514078         1.197441        -4.491328
 O         2.352950         0.239750        -3.904405
 C         2.464333         1.942273        -1.991937
 C         2.320651         1.247892        -0.614935
 O         2.547615        -0.256628        -0.611535
 H         0.533841        -0.254924         1.469331
 H        -0.758443         0.099060         0.239330
 H         0.135777        -1.432657         0.167169
 H         0.023582        -0.284544        -2.773026
 H        -0.335063         1.258773        -2.015431
 H         0.606442         0.745945        -4.926370
 H         1.946745         2.066380        -5.049756
 H         3.457709         1.984695        -2.375158
 H         2.321095         3.000120        -1.927298
 H         2.312679         1.736706         0.361996
