19
Iteration:  2379charge 0 multiplicity 1
 C         0.401611        -0.346075         0.277659
 C         1.104810         0.257671        -0.792132
 C         0.488401         0.429239        -2.108429
 C         1.643087         1.093187        -2.951141
 C         1.567109         1.222559        -4.379553
 O         2.382705         0.073440        -3.770544
 C         2.339170         1.960352        -1.895717
 C         2.157287         1.344886        -0.593881
 O         2.518054        -0.055370        -0.848914
 H        -0.622021        -0.070482         0.233058
 H         0.483429        -1.535392         0.201770
 H         0.794380        -0.168075         1.398284
 H         0.066382        -0.523007        -2.570438
 H        -0.350245         1.106912        -2.355200
 H         0.613114         0.852222        -4.783792
 H         2.157219         2.026343        -4.867250
 H         3.413201         1.962103        -2.089358
 H         1.984307         3.025203        -1.921229
 H         2.481808         1.810611         0.366273
