19
Iteration:  1806
 C         0.271090        -0.203128         0.399579
 C         1.124605         0.244694        -0.762066
 C         0.544116         0.406734        -2.170423
 C         1.608221         1.064554        -2.893785
 C         1.527374         1.252934        -4.372623
 O         2.400315         0.261301        -3.751792
 C         2.391912         1.981333        -1.922523
 C         2.255732         1.181670        -0.662643
 O         2.514421        -0.257983        -0.919956
 H         0.914342        -0.300237         1.379362
 H        -0.577944         0.477405         0.477083
 H        -0.131149        -1.155354         0.128787
 H         0.071872        -0.343197        -2.712210
 H        -0.266624         1.077882        -1.947597
 H         0.663755         0.806974        -4.909160
 H         1.920958         2.117666        -4.918292
 H         3.450668         2.019757        -2.134787
 H         1.878578         2.912420        -1.951929
 H         2.618194         1.500866         0.331301
