19
Iteration:  2086charge 0 multiplicity 1
 C        -0.059881        -0.075887         0.285244
 C         1.147783         0.192990        -0.639924
 C         0.915096        -0.159689        -2.086636
 C         1.724198         0.936345        -3.001797
 C         1.228652         1.445987        -4.292182
 O         2.287186         0.515173        -4.254635
 C         2.653794         1.777148        -2.028237
 C         2.180974         1.299314        -0.655479
 O         2.565752        -0.079526        -0.389700
 H        -0.493514         0.901000         0.530788
 H        -0.772904        -0.704307        -0.172794
 H         0.358930        -0.402862         1.374426
 H         1.239516        -1.148982        -2.296482
 H        -0.078689        -0.168069        -2.534275
 H         0.328574         1.108032        -4.799698
 H         1.540300         2.456743        -4.418034
 H         3.658568         1.543310        -2.288306
 H         2.596732         2.845294        -1.919774
 H         2.340946         1.929468         0.242997
