19
Iteration:  3007charge 0 multiplicity 1
 C         0.253382        -0.158687         0.473472
 C         1.124728         0.224738        -0.695763
 C         0.513680         0.230175        -2.127623
 C         1.586679         0.965345        -2.977446
 C         1.645526         1.528685        -4.344349
 O         2.341590         0.242833        -3.986586
 C         2.387647         1.889294        -2.052260
 C         2.272887         1.172425        -0.655268
 O         2.462622        -0.195564        -0.718180
 H         1.121243        -0.497447         1.205222
 H        -0.382167         0.635921         0.977737
 H        -0.294889        -1.020450         0.204314
 H         0.557795        -0.815249        -2.306250
 H        -0.495916         0.561612        -2.207712
 H         0.855506         1.372396        -5.083074
 H         2.260289         2.413418        -4.493181
 H         3.403556         2.251547        -2.520103
 H         1.976062         2.966936        -1.843532
 H         2.562961         1.463192         0.270703
