19
Iteration:  1428
 C        -0.112708         0.173923         0.141428
 C         1.186345         0.212393        -0.742989
 C         1.151879        -0.181730        -2.217839
 C         1.878009         0.902131        -3.013500
 C         1.084538         1.640081        -3.952371
 O         2.047376         0.464569        -4.311101
 C         2.814539         1.652038        -2.013501
 C         2.267681         1.173762        -0.634036
 O         2.455714        -0.180670        -0.337266
 H         0.155985         0.460686         1.099319
 H        -0.803702         1.008951        -0.057607
 H        -0.654263        -0.869686         0.297780
 H         1.642694        -1.178403        -2.341027
 H         0.076463        -0.333139        -2.511353
 H         0.062244         1.360515        -4.069051
 H         1.448388         2.557264        -4.427227
 H         3.881387         1.358672        -1.974811
 H         2.510210         2.710356        -2.278798
 H         2.236561         1.829619         0.210027
