19
Iteration:  1793
 C         0.327501        -0.148499         0.428025
 C         1.082156         0.239540        -0.794705
 C         0.418697         0.419157        -2.159126
 C         1.654408         1.080743        -2.980514
 C         1.530862         1.337181        -4.364338
 O         2.445723         0.263290        -3.814817
 C         2.344097         1.926710        -1.954087
 C         2.268719         1.080171        -0.681142
 O         2.538356        -0.293891        -0.795886
 H         0.924097         0.093055         1.357005
 H        -0.600520         0.321348         0.464377
 H         0.074317        -1.304852         0.525386
 H         0.215930        -0.555125        -2.515838
 H        -0.382940         1.152749        -2.261880
 H         0.693325         0.914934        -4.865598
 H         2.074362         2.200692        -4.776985
 H         3.315549         2.286191        -2.359950
 H         1.794783         2.847656        -1.605193
 H         2.484247         1.621910         0.258892
