19
Iteration:  4515charge 0 multiplicity 1
 C         0.091974        -0.066602         0.415679
 C         1.196950         0.170519        -0.693507
 C         0.846323        -0.023772        -2.187932
 C         1.737524         0.928405        -3.025866
 C         1.294303         1.435033        -4.295200
 O         2.362775         0.493430        -4.271284
 C         2.456123         1.816591        -1.970441
 C         2.111334         1.244081        -0.617162
 O         2.584672        -0.161593        -0.427733
 H        -0.549956        -0.824885        -0.005635
 H         0.547540        -0.392062         1.390641
 H        -0.489783         0.794121         0.553188
 H         0.981734        -1.023860        -2.444169
 H        -0.121517         0.351970        -2.256049
 H         0.458028         0.964507        -4.768011
 H         1.419550         2.435194        -4.634346
 H         3.556620         1.996557        -2.015137
 H         1.855611         2.752013        -2.063184
 H         2.228762         1.904740         0.298299
