19
Iteration:  3756
 C         0.190314        -0.145949         0.389701
 C         1.104614         0.159875        -0.710509
 C         0.608944         0.224475        -2.144450
 C         1.648379         0.959723        -2.939245
 C         1.554316         1.428702        -4.330697
 O         2.356163         0.295352        -4.004499
 C         2.350724         1.920296        -1.955016
 C         2.258451         1.206378        -0.649805
 O         2.561303        -0.166626        -0.729441
 H         0.104010        -1.236192         0.664105
 H         0.552890         0.398729         1.364622
 H        -0.693466         0.393277         0.211660
 H         0.588206        -0.836989        -2.477261
 H        -0.458456         0.634606        -2.068304
 H         0.611862         1.150011        -4.842834
 H         2.146519         2.257517        -4.754104
 H         3.417181         2.021825        -2.256385
 H         1.747496         2.901214        -1.942267
 H         2.570151         1.528303         0.300688
