19
Iteration:  1911charge 0 multiplicity 1
 C         0.346420        -0.173537         0.461258
 C         1.119580         0.242426        -0.701856
 C         0.491300         0.206333        -2.177758
 C         1.614577         1.055111        -2.934077
 C         1.566060         1.368924        -4.370197
 O         2.378892         0.287966        -3.899671
 C         2.457024         1.919561        -1.966974
 C         2.210905         1.257217        -0.684014
 O         2.434181        -0.251208        -0.753484
 H         0.425739        -1.199632         0.385146
 H         0.677803         0.298414         1.370798
 H        -0.772922         0.104888         0.230882
 H         0.609405        -0.818060        -2.631418
 H        -0.526974         0.648099        -2.293754
 H         0.684187         1.175744        -4.923187
 H         2.181667         2.244827        -4.619471
 H         3.435960         1.986881        -2.454298
 H         2.001976         2.946905        -1.953649
 H         2.452688         1.823937         0.206882
