19
Iteration:  2730
 C         0.147893        -0.094420         0.490390
 C         1.053221         0.278522        -0.801977
 C         0.821393        -0.034302        -2.233757
 C         1.766816         0.933324        -2.961552
 C         1.324086         1.528317        -4.179400
 O         2.244615         0.471165        -4.242742
 C         2.656289         1.635363        -1.987310
 C         2.144750         1.264780        -0.653814
 O         2.495842        -0.102177        -0.491696
 H         0.589673        -0.885866         0.943275
 H         0.053824         0.794351         1.099380
 H        -0.932769        -0.458263         0.115987
 H         0.961444        -1.039144        -2.676105
 H        -0.291702         0.215631        -2.475022
 H         0.338856         1.263622        -4.570608
 H         1.801191         2.462705        -4.505605
 H         3.641635         1.233747        -1.979594
 H         2.609729         2.722502        -2.139805
 H         2.256452         1.971948         0.245774
