19
Iteration:  2488
 C         0.194595         0.028133         0.505474
 C         1.150638         0.165305        -0.729485
 C         0.645156        -0.015040        -2.143339
 C         1.621312         1.006725        -3.003373
 C         1.357580         1.380540        -4.482174
 O         2.527163         0.411893        -4.088684
 C         2.357852         1.921553        -1.979692
 C         2.187777         1.179365        -0.629676
 O         2.530878        -0.204013        -0.538281
 H        -0.411315         0.844806         0.697356
 H        -0.360927        -0.946985         0.232375
 H         0.878012        -0.229236         1.389551
 H         0.786405        -1.118371        -2.350379
 H        -0.308371         0.417944        -2.501597
 H         0.540554         0.942636        -5.044601
 H         1.832804         2.289369        -4.871152
 H         3.392450         2.064550        -2.270029
 H         2.063594         2.919716        -1.586177
 H         2.334930         1.807175         0.263203
