19
Iteration:  4910
 C         0.223275        -0.225324         0.450278
 C         1.077805         0.194650        -0.698771
 C         0.685756         0.230766        -2.182537
 C         1.702480         1.081540        -2.918726
 C         1.399074         1.387452        -4.418111
 O         2.392658         0.334318        -3.949527
 C         2.437321         1.957090        -1.972318
 C         2.225858         1.204474        -0.640795
 O         2.490773        -0.217809        -0.713625
 H         0.848564        -0.560148         1.350034
 H        -0.414173         0.606877         0.686217
 H        -0.354079        -1.124764         0.102782
 H         0.665704        -0.789640        -2.554103
 H        -0.310635         0.617162        -2.472710
 H         0.396490         1.005367        -4.756486
 H         1.866299         2.231157        -4.956118
 H         3.537517         1.916278        -2.219973
 H         2.064897         2.967677        -1.949739
 H         2.399134         1.616962         0.334446
