19
Iteration:  1116charge 0 multiplicity 1
 C         0.368850        -0.332303         0.408444
 C         1.138930         0.278296        -0.756390
 C         0.475892         0.495819        -2.097337
 C         1.529635         1.145530        -2.973674
 C         1.747710         1.287187        -4.462365
 O         2.251614         0.141877        -3.667417
 C         2.369816         1.972056        -1.960496
 C         2.273434         1.136653        -0.680863
 O         2.465228        -0.198387        -0.878328
 H         1.083570        -0.257989         1.365507
 H        -0.592311         0.186829         0.631475
 H         0.152698        -1.281520         0.063940
 H         0.093154        -0.340146        -2.691781
 H        -0.360054         1.207947        -2.005252
 H         0.989771         0.951747        -5.227965
 H         2.538487         2.076756        -4.732748
 H         3.368499         2.205454        -2.383674
 H         1.751838         2.929008        -1.848897
 H         2.498839         1.736955         0.218631
