19
Iteration:  1579
 C        -0.061863         0.086978         0.089617
 C         1.214524         0.223710        -0.682384
 C         1.015425        -0.178579        -2.078848
 C         1.651200         0.990265        -2.949490
 C         1.099206         1.612491        -4.174467
 O         2.122250         0.605284        -4.359484
 C         2.799685         1.508560        -2.057661
 C         2.346492         1.148550        -0.644814
 O         2.494603        -0.155639        -0.151628
 H         0.028091         0.659730         1.058252
 H        -0.903982         0.510090        -0.540960
 H        -0.358027        -0.871316         0.340368
 H         1.629322        -0.964695        -2.504241
 H         0.000089        -0.211917        -2.493209
 H         0.064959         1.352919        -4.395712
 H         1.338178         2.649127        -4.537877
 H         3.699231         0.947341        -2.361847
 H         3.108580         2.559267        -2.177968
 H         2.593856         1.795656         0.159136
