19
Iteration:  4654charge 0 multiplicity 1
 C         0.046623        -0.083619         0.321124
 C         1.170198         0.167008        -0.674751
 C         0.947403         0.009721        -2.211231
 C         1.654024         1.097003        -2.935418
 C         1.278608         1.423582        -4.340084
 O         2.280412         0.412093        -4.138218
 C         2.471419         1.828900        -1.937063
 C         2.198487         1.245897        -0.597671
 O         2.602840        -0.194678        -0.552164
 H         0.295761        -0.868120         0.997019
 H        -0.286140         0.812497         0.956481
 H        -0.886471        -0.502273        -0.151236
 H         1.275149        -1.054952        -2.417495
 H        -0.130352         0.230667        -2.265949
 H         0.348801         1.350711        -4.867358
 H         1.829536         2.250190        -4.723844
 H         3.481738         1.678686        -2.013193
 H         2.179807         2.879467        -1.994018
 H         2.413706         1.802272         0.406022
