19
Iteration:   953
 C         0.037889         0.001066         0.323657
 C         1.044646         0.326055        -0.788313
 C         0.933876        -0.173643        -2.190208
 C         1.864292         0.883493        -2.989707
 C         1.185620         1.646408        -4.151115
 O         2.123712         0.575429        -4.313209
 C         2.888371         1.533347        -2.052722
 C         2.260759         1.245700        -0.627396
 O         2.344333        -0.137549        -0.307206
 H         0.336393         0.586503         1.350896
 H        -1.048920         0.017206         0.071138
 H         0.180384        -1.006002         0.437903
 H         1.358394        -1.187783        -2.234292
 H        -0.124694        -0.166831        -2.426282
 H         0.228478         1.456544        -4.675097
 H         1.647232         2.644847        -4.254431
 H         3.765081         0.905711        -1.951814
 H         2.953244         2.548467        -2.461333
 H         2.470016         1.974794         0.159239
