19
Iteration:   467
 C         0.071295        -0.058459         0.385362
 C         1.093047         0.324917        -0.740143
 C         0.721376         0.157659        -2.196127
 C         1.625032         1.058231        -2.951386
 C         1.421715         1.632475        -4.245492
 O         2.167242         0.429842        -4.230388
 C         2.778958         1.609619        -2.011811
 C         2.392946         1.077375        -0.610854
 O         2.405184        -0.336782        -0.462197
 H         0.162097        -1.050892         0.716209
 H         0.263320         0.549410         1.337959
 H        -0.994385         0.235929         0.134730
 H         0.927027        -0.871195        -2.529816
 H        -0.337772         0.379571        -2.457928
 H         0.396191         1.515436        -4.749673
 H         1.980851         2.582930        -4.427276
 H         3.775580         1.276461        -2.316629
 H         2.727861         2.788443        -1.998087
 H         2.531642         1.796621         0.196596
