19
Iteration:  1625
 C         0.096782         0.158235         0.380619
 C         1.129641         0.205317        -0.761348
 C         0.955390        -0.240490        -2.198310
 C         1.862892         0.822678        -2.965657
 C         1.220134         1.563810        -4.054050
 O         2.185759         0.647961        -4.392554
 C         2.709425         1.547621        -2.022884
 C         2.121552         1.197935        -0.671417
 O         2.437927        -0.132939        -0.397467
 H         0.508413        -0.085363         1.334655
 H        -0.537976         1.089539         0.347567
 H        -0.830844        -0.545588         0.363278
 H         1.390936        -1.296055        -2.339014
 H        -0.088963        -0.105281        -2.589108
 H         0.154743         1.376360        -4.332932
 H         1.537201         2.594566        -4.228312
 H         3.775974         1.218368        -1.842287
 H         2.678625         2.711888        -2.132712
 H         2.132569         2.060954        -0.050754
