19
Iteration:  1559
 C        -0.091945         0.146034         0.126887
 C         1.268292         0.222343        -0.713081
 C         1.038490        -0.174709        -2.217577
 C         1.753693         0.883516        -2.956930
 C         1.142391         1.667710        -4.084681
 O         2.015954         0.574788        -4.357978
 C         2.794314         1.501261        -2.030816
 C         2.278400         1.260813        -0.599321
 O         2.522716        -0.205989        -0.191527
 H        -0.221184         0.859920         0.875965
 H        -0.928203         0.120251        -0.624833
 H        -0.144661        -0.924842         0.595785
 H         1.656451        -1.118069        -2.227367
 H        -0.036693        -0.298783        -2.591103
 H         0.133104         1.489464        -4.439737
 H         1.444041         2.721443        -4.241373
 H         3.754426         1.011266        -2.299689
 H         3.145472         2.531791        -2.368200
 H         2.220946         1.946789         0.207486
