19
Iteration:  4448charge 0 multiplicity 1
 C         0.192859        -0.239965         0.435158
 C         1.176548         0.238291        -0.681047
 C         0.594961         0.114478        -2.190197
 C         1.653906         0.965552        -2.978572
 C         1.465086         1.396131        -4.382674
 O         2.355398         0.310959        -4.092883
 C         2.386488         1.943286        -1.922819
 C         2.236521         1.275225        -0.611127
 O         2.565943        -0.135415        -0.604312
 H         0.521885        -1.210968         0.631907
 H         0.363963         0.375401         1.316008
 H        -0.833780        -0.204390         0.119276
 H         0.634564        -0.789009        -2.715877
 H        -0.303437         0.626772        -2.284348
 H         0.685309         1.064929        -5.030944
 H         1.945470         2.300410        -4.697022
 H         3.382856         2.219250        -2.221310
 H         1.759914         2.883611        -1.892905
 H         2.479814         1.924104         0.287676
