19
Iteration:  4408
 C         0.248309        -0.420106         0.329523
 C         1.188211         0.200927        -0.771821
 C         0.555603         0.384386        -2.176356
 C         1.607744         1.058872        -2.957261
 C         1.468209         1.229977        -4.445532
 O         2.322375         0.239435        -3.849073
 C         2.451114         2.001104        -1.933549
 C         2.213248         1.333214        -0.626752
 O         2.593723        -0.082088        -0.670247
 H         0.594976        -1.508290         0.492669
 H         0.198224         0.003197         1.394248
 H        -0.762253        -0.517501        -0.001764
 H         0.148155        -0.536047        -2.531914
 H        -0.375994         1.002041        -1.990604
 H         0.603728         0.932118        -5.020773
 H         1.986311         2.058041        -4.887916
 H         3.551123         2.100115        -2.208403
 H         2.076740         3.009113        -1.871884
 H         2.388158         1.799651         0.299949
