19
Iteration:  1853charge 0 multiplicity 1
 C         0.308664        -0.407334         0.249745
 C         1.115560         0.287447        -0.741843
 C         0.507393         0.516128        -2.135111
 C         1.642422         1.111423        -2.906059
 C         1.545048         1.236253        -4.435041
 O         2.301032         0.177445        -3.721808
 C         2.424180         1.957884        -1.995538
 C         2.315729         1.252994        -0.637194
 O         2.484530        -0.189540        -0.734454
 H         1.115178        -1.033602         0.660029
 H        -0.003242         0.301559         1.185709
 H        -0.563957        -0.923232        -0.070308
 H        -0.061741        -0.413462        -2.504713
 H        -0.302481         1.238719        -2.172274
 H         0.709058         1.019539        -5.156690
 H         2.140318         2.079298        -4.852881
 H         3.359752         1.998079        -2.551705
 H         1.910226         2.902746        -1.831807
 H         2.670019         1.879334         0.197223
