19
Iteration:  1368charge 0 multiplicity 1
 C         0.031972         0.042360         0.426928
 C         1.150977         0.185741        -0.651408
 C         0.872274        -0.119813        -2.251706
 C         1.716938         0.946232        -3.032473
 C         1.238259         1.638023        -4.289871
 O         2.257278         0.656653        -4.414952
 C         2.710615         1.427375        -2.038754
 C         2.175779         1.228867        -0.757766
 O         2.509146        -0.133993        -0.130021
 H         0.412068         0.536617         1.512744
 H        -1.014037         0.265556         0.193160
 H         0.070863        -0.967485         0.626225
 H         1.197359        -1.146437        -2.416138
 H        -0.205934        -0.073728        -2.314264
 H         0.241994         1.263782        -4.666025
 H         1.437202         2.714546        -4.492607
 H         3.638038         0.874749        -2.060090
 H         3.081896         2.389483        -2.197592
 H         1.966815         1.924774         0.053895
