19
Iteration:  1362charge 0 multiplicity 1
 C         0.038692         0.030166         0.468567
 C         1.141006         0.176684        -0.739868
 C         0.891112        -0.137817        -2.232936
 C         1.681579         0.917577        -3.034934
 C         1.258195         1.643596        -4.276682
 O         2.232850         0.619512        -4.423805
 C         2.765444         1.478510        -2.043261
 C         2.170341         1.244763        -0.647448
 O         2.475442        -0.114836        -0.160075
 H         0.320933         0.435074         1.353157
 H        -0.992452         0.289846         0.174043
 H         0.148409        -1.117557         0.658734
 H         1.277437        -1.109622        -2.612261
 H        -0.201357         0.083310        -2.336317
 H         0.237006         1.370486        -4.568443
 H         1.590089         2.640121        -4.565335
 H         3.613596         0.742414        -2.114531
 H         2.998270         2.578182        -2.240646
 H         2.166573         2.099136         0.054081
