19
Iteration:  2824
 C         0.156387        -0.091725         0.362407
 C         1.098157         0.306928        -0.696513
 C         0.609257         0.210690        -2.163887
 C         1.666779         0.986794        -2.962726
 C         1.342375         1.405004        -4.299086
 O         2.410735         0.388571        -4.070231
 C         2.559959         1.887076        -1.896184
 C         2.301866         1.116655        -0.632167
 O         2.506543        -0.286395        -0.697779
 H         0.571766         0.310678         1.418175
 H        -0.831102         0.450330         0.215404
 H         0.075594        -1.087046         0.550226
 H         0.737348        -0.879408        -2.357763
 H        -0.500728         0.485386        -2.298248
 H         0.438856         0.920387        -4.696487
 H         1.699434         2.308581        -4.772050
 H         3.637109         1.914417        -2.109188
 H         1.996881         2.822279        -2.094404
 H         2.537352         1.578782         0.267044
