19
Iteration:  4505charge 0 multiplicity 1
 C         0.197393        -0.037181         0.401533
 C         1.109348         0.152471        -0.722573
 C         0.780134        -0.046222        -2.169619
 C         1.755626         0.899322        -2.953199
 C         1.262773         1.430798        -4.360136
 O         2.423454         0.550402        -4.206088
 C         2.440000         1.790748        -1.962647
 C         2.153573         1.237179        -0.643316
 O         2.533076        -0.136089        -0.471255
 H        -0.444716        -0.956451         0.353205
 H         0.829457        -0.216705         1.328887
 H        -0.467199         0.723353         0.660820
 H         0.853646        -1.007322        -2.544216
 H        -0.226495         0.130976        -2.383656
 H         0.379769         0.973543        -4.773594
 H         1.654289         2.341661        -4.708957
 H         3.572383         1.855173        -2.134415
 H         2.140267         2.837298        -1.843738
 H         1.876224         1.886783         0.180568
