19
Iteration:  4082charge 0 multiplicity 1
 C         0.038493        -0.088714         0.328567
 C         1.129073         0.145971        -0.745478
 C         0.859735        -0.061150        -2.189189
 C         1.835693         0.905394        -2.974076
 C         1.245666         1.494455        -4.207972
 O         2.256824         0.457226        -4.301696
 C         2.657651         1.774511        -1.984678
 C         2.125260         1.334330        -0.611654
 O         2.569087        -0.101283        -0.371604
 H        -0.807498        -0.779597         0.054855
 H         0.493405        -0.603984         1.265484
 H        -0.276176         0.864821         0.617435
 H         0.992457        -1.157552        -2.527892
 H        -0.124284         0.253582        -2.468662
 H         0.152149         1.197762        -4.392823
 H         1.520944         2.450986        -4.732454
 H         3.749929         1.612258        -2.167028
 H         2.264478         2.760472        -2.070853
 H         1.979066         1.970426         0.189086
