19
Iteration:  1119charge 0 multiplicity 1
 C         0.366490        -0.346908         0.391975
 C         1.110748         0.300882        -0.762466
 C         0.459150         0.469723        -2.081875
 C         1.568435         1.151643        -2.983189
 C         1.736328         1.290893        -4.462803
 O         2.243219         0.122704        -3.648701
 C         2.389833         1.973650        -1.960869
 C         2.282527         1.159543        -0.657669
 O         2.454368        -0.175170        -0.899872
 H         1.051854        -0.272117         1.285657
 H        -0.551094         0.127343         0.572071
 H         0.176358        -1.353228         0.111190
 H         0.141987        -0.379503        -2.700814
 H        -0.343662         1.216788        -1.976020
 H         0.962262         1.016151        -5.178034
 H         2.464986         2.078484        -4.791572
 H         3.454163         2.172303        -2.322493
 H         1.687813         2.854123        -1.875412
 H         2.675301         1.697606         0.240580
