19
Iteration:  3328
 C         0.229545        -0.298584         0.246858
 C         1.232719         0.227297        -0.721003
 C         0.538140         0.389226        -2.107869
 C         1.603942         1.124263        -2.959114
 C         1.494106         1.252117        -4.394506
 O         2.314148         0.166925        -3.823250
 C         2.411998         2.011540        -2.020261
 C         2.208385         1.256386        -0.602072
 O         2.622131        -0.176277        -0.677156
 H         0.446472        -1.367062         0.072329
 H         0.250275        -0.099199         1.289876
 H        -0.814556        -0.017946        -0.289347
 H         0.275442        -0.556902        -2.531711
 H        -0.241076         1.139163        -1.835091
 H         0.552048         0.972105        -4.876327
 H         2.098025         2.025287        -4.859732
 H         3.370117         2.142843        -2.502293
 H         1.803923         2.888346        -1.722757
 H         2.510232         1.790005         0.345059
