19
Iteration:  3237charge 0 multiplicity 1
 C         0.228253        -0.025359         0.431488
 C         1.097876         0.158209        -0.745816
 C         0.740887         0.104912        -2.173982
 C         1.630408         0.987627        -2.963038
 C         1.405485         1.409889        -4.369551
 O         2.396540         0.409512        -4.091580
 C         2.394933         1.890481        -1.995571
 C         2.172076         1.190485        -0.619910
 O         2.545711        -0.234364        -0.542955
 H        -0.210558        -1.107837         0.500396
 H         0.726945         0.013796         1.456476
 H        -0.464462         0.717872         0.375307
 H         0.773303        -0.957918        -2.492895
 H        -0.322398         0.480565        -2.455783
 H         0.504453         1.098218        -4.902699
 H         1.822905         2.379399        -4.684852
 H         3.472632         1.900668        -2.301082
 H         1.928906         2.837803        -2.041915
 H         2.507257         1.556834         0.317304
