19
Iteration:  2983
 C         0.332035        -0.205212         0.429387
 C         1.137038         0.227790        -0.715482
 C         0.507784         0.370734        -2.215881
 C         1.645123         1.085382        -2.940823
 C         1.606855         1.380192        -4.420521
 O         2.302671         0.215552        -3.880404
 C         2.370268         1.908228        -1.936303
 C         2.196730         1.183312        -0.596981
 O         2.514712        -0.241545        -0.785871
 H         0.866494        -0.028831         1.395901
 H        -0.617738         0.358364         0.423360
 H         0.159117        -1.316484         0.293991
 H         0.324223        -0.652523        -2.503043
 H        -0.405904         0.944957        -2.150165
 H         0.633522         1.224962        -4.933122
 H         2.267202         2.117661        -4.880280
 H         3.383345         2.146493        -2.324512
 H         1.992830         2.976105        -1.870844
 H         2.617573         1.550929         0.348813
