19
Iteration:  2716
 C         0.168319        -0.038692         0.306325
 C         1.124115         0.157438        -0.726488
 C         0.749587        -0.016696        -2.284764
 C         1.749573         0.903268        -2.975833
 C         1.207831         1.593171        -4.248734
 O         2.299752         0.435727        -4.208899
 C         2.679471         1.683714        -1.974197
 C         2.173232         1.267057        -0.587914
 O         2.489451        -0.105527        -0.400215
 H         0.557719        -0.884726         0.920945
 H         0.280717         0.737003         1.109710
 H        -0.865889        -0.131130         0.078126
 H         0.873782        -1.103821        -2.405053
 H        -0.211355         0.154572        -2.566656
 H         0.201766         1.259176        -4.534511
 H         1.490203         2.593330        -4.561108
 H         3.630653         1.213485        -2.139367
 H         2.768234         2.791763        -2.201953
 H         2.271326         1.818324         0.324683
