19
Iteration:  4284
 C         0.213911        -0.198794         0.389510
 C         1.114566         0.258004        -0.709123
 C         0.615034         0.131297        -2.164492
 C         1.660624         1.023075        -2.927828
 C         1.418796         1.294362        -4.386771
 O         2.468106         0.414883        -3.900060
 C         2.404985         1.978607        -1.993212
 C         2.253569         1.211612        -0.635842
 O         2.449028        -0.202285        -0.742745
 H        -0.493643        -0.962802         0.141487
 H         0.916147        -0.681799         1.086218
 H        -0.305323         0.632257         0.995241
 H         0.876680        -0.892462        -2.493095
 H        -0.441460         0.347397        -2.290283
 H         0.526019         0.867512        -4.826255
 H         1.714156         2.268393        -4.740207
 H         3.410861         2.035644        -2.351521
 H         2.141586         3.064688        -1.997845
 H         2.654854         1.861557         0.275038
