19
Iteration:  3642charge 0 multiplicity 1
 C         0.193542         0.005097         0.323597
 C         1.136331         0.168841        -0.804404
 C         0.867467        -0.070678        -2.256347
 C         1.681674         0.958726        -2.984267
 C         1.315887         1.553587        -4.249410
 O         2.301819         0.374679        -4.156473
 C         2.541625         1.773394        -1.959873
 C         2.165983         1.204356        -0.622464
 O         2.468064        -0.133954        -0.385612
 H        -0.414729        -0.856458         0.291646
 H         0.592441         0.005154         1.276749
 H        -0.365504         0.889958         0.414669
 H         1.069735        -1.161963        -2.605792
 H        -0.214101         0.100597        -2.488126
 H         0.315903         1.366751        -4.645726
 H         1.835184         2.426470        -4.670728
 H         3.576783         1.894805        -2.373611
 H         2.130489         2.799421        -1.807657
 H         2.177284         1.878437         0.303000
