19
Iteration:  2689
 C         0.005092         0.009653         0.295636
 C         1.169843         0.176782        -0.624991
 C         0.907043        -0.041082        -2.175540
 C         1.686651         0.977268        -2.923285
 C         1.262558         1.514577        -4.349264
 O         2.252373         0.534855        -4.250971
 C         2.592491         1.695204        -2.052396
 C         2.283264         1.179384        -0.669217
 O         2.546293        -0.174607        -0.305499
 H         0.054554        -1.118012         0.448528
 H         0.205942         0.339209         1.306108
 H        -1.002623         0.400657        -0.090930
 H         0.916320        -1.094499        -2.431068
 H        -0.227997         0.111951        -2.442145
 H         0.269084         1.151546        -4.618250
 H         1.498836         2.560186        -4.627009
 H         3.615191         1.397023        -2.446307
 H         2.421741         2.767191        -2.014521
 H         2.442742         1.902294         0.193562
