19
Iteration:  1010charge 0 multiplicity 1
 C         0.132872        -0.069960         0.299585
 C         1.169917         0.144850        -0.738993
 C         0.642434         0.107248        -2.137559
 C         1.650507         1.034801        -3.007427
 C         1.358693         1.532636        -4.356958
 O         2.322145         0.426608        -4.197812
 C         2.571832         1.664824        -1.983594
 C         2.293072         1.203579        -0.602144
 O         2.543170        -0.207435        -0.366931
 H         0.391856         0.003695         1.438238
 H        -0.501393         0.747126         0.073465
 H        -0.492730        -1.027828         0.238046
 H         0.487745        -0.915850        -2.526960
 H        -0.378262         0.529194        -2.000310
 H         0.376053         1.422245        -4.758182
 H         1.836026         2.468300        -4.631849
 H         3.637038         1.489060        -2.276720
 H         2.613198         2.749892        -2.052954
 H         2.210342         1.925677         0.240544
