19
Iteration:  3352charge 0 multiplicity 1
 C         0.191298        -0.423862         0.360997
 C         1.133028         0.307024        -0.716561
 C         0.503802         0.421636        -2.101171
 C         1.574547         1.063866        -2.968994
 C         1.500736         1.200640        -4.417035
 O         2.443571         0.246311        -3.778621
 C         2.397879         2.000007        -1.990611
 C         2.303259         1.294330        -0.672182
 O         2.532306        -0.135838        -0.793860
 H         0.103229        -1.399533         0.036405
 H         0.741915        -0.523469         1.326420
 H        -0.869872         0.227466         0.455067
 H         0.361563        -0.629175        -2.364784
 H        -0.278578         1.127979        -2.025077
 H         0.695099         0.756202        -4.989168
 H         2.043332         2.070060        -4.824626
 H         3.376692         1.816842        -2.422572
 H         1.946705         3.048262        -1.809115
 H         2.864103         1.694964         0.227015
