19
Iteration:  2917
 C         0.244613        -0.351475         0.355600
 C         1.095427         0.324623        -0.744634
 C         0.475348         0.457016        -2.078284
 C         1.590655         1.093464        -2.896153
 C         1.585947         1.239573        -4.369796
 O         2.315673         0.194999        -3.801691
 C         2.496680         2.018020        -1.978373
 C         2.349682         1.188630        -0.666653
 O         2.460178        -0.191719        -0.870183
 H         0.019318        -0.021124         1.362533
 H        -0.716817        -0.539289        -0.112986
 H         0.822282        -1.386545         0.576172
 H         0.205146        -0.466438        -2.596817
 H        -0.198711         1.268489        -2.194916
 H         0.611530         0.948466        -4.817883
 H         2.150910         2.007390        -4.936902
 H         3.601677         2.210421        -2.204229
 H         1.965969         3.118479        -1.694719
 H         2.911954         1.485642         0.290531
