19
Iteration:   156charge 0 multiplicity 1
 C         0.107047         0.003200         0.495955
 C         1.049179         0.295725        -0.732305
 C         0.607876         0.124132        -2.190843
 C         1.654165         1.037628        -2.959602
 C         1.459220         1.572445        -4.348125
 O         2.335100         0.448279        -4.069412
 C         2.618348         1.780894        -1.985042
 C         2.412649         1.024824        -0.626679
 O         2.417456        -0.393982        -0.658378
 H        -0.735812        -0.695892         0.239521
 H         0.601486        -0.508135         1.224127
 H        -0.199771         1.031439         0.953976
 H         0.567459        -0.903590        -2.549266
 H        -0.343298         0.692195        -2.326714
 H         0.474348         1.289840        -4.795819
 H         1.870799         2.507989        -4.738749
 H         3.647337         1.607454        -2.414071
 H         2.495472         2.826805        -1.790634
 H         2.529300         1.528628         0.378806
