19
Iteration:   536
 C         0.308709        -0.238185         0.466473
 C         1.116282         0.259414        -0.776622
 C         0.508100         0.617362        -2.156214
 C         1.613220         1.183137        -2.939609
 C         1.593698         1.338812        -4.398644
 O         2.347128         0.262930        -3.743091
 C         2.503629         1.866064        -1.952622
 C         2.326712         1.077681        -0.657090
 O         2.280673        -0.398890        -0.941748
 H         0.277745        -1.378319         0.526423
 H         0.927810         0.070378         1.422449
 H        -0.573794         0.258070         0.597143
 H         0.043715        -0.246359        -2.656231
 H        -0.271040         1.383062        -1.884179
 H         0.786703         1.013580        -5.040507
 H         2.370471         2.009456        -4.791521
 H         3.510267         1.997842        -2.359296
 H         2.199332         2.968267        -1.789978
 H         2.879202         1.157812         0.281659
