19
Iteration:  3484
 C         0.227180        -0.215439         0.396289
 C         1.137960         0.210941        -0.726113
 C         0.691555         0.279010        -2.217532
 C         1.730502         1.073692        -2.924208
 C         1.328572         1.288837        -4.425599
 O         2.359265         0.380970        -4.102723
 C         2.592583         1.822848        -1.891809
 C         2.090960         1.271470        -0.560327
 O         2.509029        -0.212248        -0.590955
 H         0.180642        -1.218012         0.510178
 H         0.705203         0.341527         1.287014
 H        -0.909220         0.193474         0.269172
 H         0.462224        -0.696231        -2.709127
 H        -0.478330         0.771595        -2.241783
 H         0.359357         0.943447        -4.835345
 H         1.648439         2.179368        -4.972279
 H         3.668859         1.695149        -1.919997
 H         2.469452         2.893330        -2.104047
 H         2.264460         1.737630         0.387597
