19
Iteration:  3685
 C         0.092129        -0.256643         0.387747
 C         1.087243         0.197134        -0.659298
 C         0.690548         0.088397        -2.096920
 C         1.710990         0.988263        -2.980843
 C         1.402419         1.489748        -4.358941
 O         2.342619         0.410602        -4.175319
 C         2.585127         1.733388        -2.075875
 C         2.266437         1.322803        -0.619964
 O         2.478019        -0.074580        -0.466054
 H         0.067088        -1.318647         0.499197
 H         0.316735         0.107035         1.383506
 H        -0.990423         0.124744         0.001513
 H         0.801899        -1.001159        -2.484935
 H        -0.353863         0.460892        -2.254910
 H         0.488979         1.120249        -4.815874
 H         1.693638         2.522150        -4.614001
 H         3.643228         1.409791        -2.164951
 H         2.451905         2.780086        -2.317098
 H         2.584400         1.985602         0.261626
