19
Iteration:  1339charge 0 multiplicity 1
 C         0.087048        -0.046693         0.291375
 C         1.113279         0.276763        -0.773758
 C         0.886222        -0.077015        -2.212886
 C         1.786990         0.850831        -2.967168
 C         1.290446         1.664975        -4.147073
 O         2.098315         0.441790        -4.279290
 C         2.775692         1.608297        -2.012024
 C         2.222480         1.291712        -0.684176
 O         2.417410        -0.119666        -0.328260
 H         0.362116         0.315425         1.250824
 H        -0.921005         0.284180        -0.024834
 H         0.167106        -1.189985         0.523444
 H         1.417196        -1.048117        -2.227804
 H        -0.177057         0.039219        -2.498808
 H         0.243163         1.489564        -4.503646
 H         1.768674         2.618795        -4.343555
 H         3.805628         1.144278        -1.998677
 H         2.690982         2.713973        -2.188169
 H         2.287050         1.975155         0.179263
