19
Iteration:  4745
 C         0.369332        -0.209884         0.456842
 C         1.067759         0.216498        -0.819300
 C         0.650971         0.254912        -2.207966
 C         1.597107         1.080591        -2.937602
 C         1.585987         1.463846        -4.272695
 O         2.307407         0.294190        -3.934425
 C         2.403331         1.871401        -2.010987
 C         2.152090         1.236455        -0.666637
 O         2.476661        -0.280958        -0.690977
 H         0.740644         0.367675         1.385412
 H        -0.696737        -0.047411         0.381246
 H         0.604003        -1.198740         0.751974
 H         0.656874        -0.785041        -2.679379
 H        -0.450108         0.475296        -2.400308
 H         0.700312         1.424225        -4.928660
 H         2.204286         2.333014        -4.591601
 H         3.441343         2.078599        -2.306019
 H         1.897863         2.822971        -2.053437
 H         2.284662         1.664612         0.327799
