19
Iteration:     6
 C         0.229713        -0.160059         0.388110
 C         1.130507         0.236254        -0.697047
 C         0.536162         0.411312        -2.152857
 C         1.645969         1.109662        -2.921076
 C         1.517260         1.421096        -4.357954
 O         2.291248         0.301548        -3.932655
 C         2.567065         1.804334        -1.911654
 C         2.322293         1.064962        -0.673302
 O         2.418347        -0.331842        -0.771704
 H        -0.127998        -1.184709         0.175983
 H         0.796438        -0.029479         1.352498
 H        -0.623740         0.576426         0.456356
 H         0.215418        -0.516384        -2.661660
 H        -0.322477         1.119839        -2.190085
 H         0.563193         1.408796        -4.981020
 H         2.166942         2.242408        -4.747228
 H         3.623750         2.021361        -2.257931
 H         2.310700         2.883428        -1.864187
 H         2.504620         1.617332         0.277935
