19
Iteration:   982
 C         0.088077        -0.084867         0.356346
 C         1.071599         0.238739        -0.746728
 C         0.809050         0.020481        -2.210055
 C         1.794102         0.954153        -3.019767
 C         1.334168         1.680461        -4.172339
 O         2.158900         0.381549        -4.293873
 C         2.707068         1.603669        -2.051256
 C         2.200676         1.245735        -0.628785
 O         2.507683        -0.140385        -0.314187
 H         0.415010         0.215313         1.292627
 H        -0.951999         0.309191         0.083263
 H        -0.128686        -1.191536         0.418965
 H         1.067614        -1.021562        -2.479075
 H        -0.266200         0.253245        -2.321293
 H         0.297761         1.722220        -4.623347
 H         1.949258         2.576926        -4.371105
 H         3.639196         1.010612        -2.048845
 H         2.882188         2.694218        -2.345345
 H         2.220855         1.992466         0.175574
