19
Iteration:  1044
 C         0.161357        -0.069773         0.480668
 C         1.124991         0.261591        -0.774017
 C         0.636473         0.148161        -2.108468
 C         1.743804         1.065803        -2.954639
 C         1.362334         1.402586        -4.377760
 O         2.420844         0.382650        -3.999762
 C         2.535796         1.891139        -1.948824
 C         2.324144         1.098796        -0.654258
 O         2.372031        -0.260787        -0.724478
 H         0.704358        -0.236102         1.443632
 H        -0.466494         0.780810         0.666441
 H        -0.606112        -0.945954         0.137960
 H         0.769996        -0.888467        -2.493435
 H        -0.387344         0.450291        -2.384465
 H         0.465266         0.947031        -4.704256
 H         1.810663         2.186939        -4.956558
 H         3.584575         2.114157        -2.294888
 H         2.021656         2.814508        -1.720849
 H         2.604154         1.564169         0.319914
