19
Iteration:   413
 C         0.015260         0.210760         0.229188
 C         1.113974         0.182895        -0.743481
 C         0.900891        -0.221334        -2.274956
 C         1.774562         0.819989        -3.024482
 C         1.201659         1.766992        -3.924308
 O         2.157710         0.716108        -4.379862
 C         2.794615         1.344556        -2.065505
 C         2.303153         1.123439        -0.681219
 O         2.408975        -0.196391        -0.227660
 H        -0.708424        -0.549115         0.093987
 H         0.398153         0.225328         1.364157
 H        -0.432927         1.249665         0.149538
 H         1.195607        -1.251034        -2.528808
 H        -0.161187         0.041441        -2.535564
 H         0.095721         1.538579        -4.158720
 H         1.587323         2.787645        -4.129426
 H         3.792356         0.989021        -2.076865
 H         3.158398         2.412036        -2.382938
 H         2.601561         1.832700         0.122674
