19
Iteration:  3622
 C         0.004387         0.044673         0.380695
 C         1.152561         0.217693        -0.631526
 C         0.840452        -0.081285        -2.167925
 C         1.662903         0.933075        -2.970121
 C         1.315530         1.458968        -4.350590
 O         2.362920         0.560794        -4.185816
 C         2.521635         1.797790        -2.030769
 C         2.225440         1.181155        -0.652803
 O         2.550004        -0.248947        -0.418823
 H        -0.634525        -0.876702         0.037523
 H         0.489576        -0.107205         1.307727
 H        -0.498830         0.924083         0.483760
 H         1.117508        -1.146746        -2.375166
 H        -0.190697        -0.089061        -2.512328
 H         0.436753         1.022768        -4.858596
 H         1.443399         2.538963        -4.582098
 H         3.569391         1.744210        -2.395532
 H         2.309483         2.899088        -2.217081
 H         2.531048         1.796435         0.248527
