19
Iteration:  3341
 C         0.205435        -0.406527         0.262815
 C         1.178938         0.281056        -0.687534
 C         0.532877         0.402344        -2.042260
 C         1.570155         1.060526        -2.913714
 C         1.543154         1.198330        -4.432581
 O         2.345392         0.271599        -3.793621
 C         2.400148         1.962305        -2.010764
 C         2.349779         1.263382        -0.665809
 O         2.562618        -0.121484        -0.748812
 H         0.009374        -1.411430         0.082950
 H         0.417975        -0.215393         1.323704
 H        -0.902612         0.077705         0.087020
 H         0.090649        -0.476518        -2.521149
 H        -0.356338         0.986665        -1.974490
 H         0.719144         0.746625        -4.987090
 H         2.013700         2.030265        -4.990277
 H         3.427227         2.224118        -2.275897
 H         1.950215         3.010487        -2.089933
 H         2.595666         1.805935         0.290562
