19
Iteration:   338charge 0 multiplicity 1
 C        -0.107809         0.402908        -0.188256
 C         1.216290         0.142900        -0.840219
 C         1.188525        -0.437915        -2.195563
 C         1.888524         0.817806        -2.958743
 C         0.996762         1.731162        -3.667153
 O         1.855162         0.911315        -4.438825
 C         3.022966         1.200980        -2.048721
 C         2.423977         1.148063        -0.691708
 O         2.325621        -0.190973        -0.060834
 H        -0.780184        -0.453762        -0.065204
 H         0.096275         1.062343         0.835647
 H        -0.705449         0.999329        -0.815851
 H         1.685541        -1.416342        -2.188657
 H         0.110876        -0.601947        -2.512610
 H        -0.068135         1.434142        -3.588046
 H         1.130532         2.786834        -3.840776
 H         3.910936         0.634917        -2.321731
 H         3.468416         2.256750        -2.049524
 H         2.545961         2.027532         0.010937
