19
Iteration:  2083charge 0 multiplicity 1
 C        -0.029610        -0.065355         0.295906
 C         1.162743         0.174925        -0.666019
 C         0.901368        -0.163368        -2.086794
 C         1.719324         0.916115        -2.998206
 C         1.248052         1.465068        -4.286035
 O         2.285313         0.510627        -4.253526
 C         2.640885         1.777155        -2.012122
 C         2.173111         1.307700        -0.653305
 O         2.552551        -0.071015        -0.374560
 H        -0.523645         0.818032         0.510046
 H        -0.792412        -0.794137        -0.247912
 H         0.372655        -0.412281         1.252625
 H         1.222029        -1.233861        -2.244318
 H        -0.064191         0.023105        -2.511553
 H         0.296383         1.080480        -4.717903
 H         1.539454         2.543746        -4.511607
 H         3.626031         1.430780        -2.383662
 H         2.636563         2.883207        -1.977234
 H         2.343915         2.004927         0.144258
