19
Iteration:   627
 C         0.294216        -0.294210         0.360442
 C         1.135620         0.314589        -0.715008
 C         0.492807         0.532346        -2.153961
 C         1.602057         1.137664        -2.909646
 C         1.525403         1.341629        -4.411535
 O         2.274089         0.220610        -3.893880
 C         2.552159         1.883159        -1.905981
 C         2.320483         1.180079        -0.624177
 O         2.432022        -0.363044        -0.757434
 H        -0.726444        -0.284259        -0.190141
 H         0.544993        -1.224948         0.689527
 H         0.113365         0.472494         1.149687
 H         0.235810        -0.464671        -2.582855
 H        -0.349278         1.258028        -2.153344
 H         0.699219         1.174898        -5.076960
 H         2.211783         2.029551        -4.794508
 H         3.629984         1.865970        -2.304202
 H         2.426736         2.943299        -1.900739
 H         2.688473         1.673774         0.288399
