19
Iteration:  4475
 C         0.244843        -0.101478         0.523330
 C         1.152474         0.212194        -0.696016
 C         0.719746        -0.004758        -2.206746
 C         1.576678         0.999582        -2.970293
 C         1.406276         1.404926        -4.349420
 O         2.453579         0.505638        -3.994511
 C         2.420914         1.799304        -2.011263
 C         2.111488         1.295608        -0.702384
 O         2.473175        -0.209109        -0.616005
 H         0.317705        -1.264093         0.575925
 H         0.787117         0.251811         1.434505
 H        -0.804448         0.335175         0.453949
 H         1.172591        -0.936871        -2.682870
 H        -0.389834         0.017955        -2.530701
 H         0.587005         1.079811        -5.055356
 H         1.705101         2.419484        -4.764836
 H         3.490853         1.585196        -2.368956
 H         2.373436         2.882001        -2.079485
 H         2.192304         1.943271         0.125730
