19
Iteration:  2605charge 0 multiplicity 1
 C         0.088732        -0.086156         0.362411
 C         1.147295         0.241019        -0.664085
 C         0.806095        -0.114942        -2.130662
 C         1.692147         0.935416        -3.052212
 C         1.269160         1.533853        -4.316477
 O         2.363377         0.493172        -4.297915
 C         2.537441         1.665439        -2.015663
 C         2.195723         1.305691        -0.621289
 O         2.502508        -0.075070        -0.321313
 H        -1.090795        -0.185780         0.091941
 H         0.523973        -1.082816         0.757129
 H         0.288492         0.594758         1.099547
 H         1.065585        -1.210148        -2.175238
 H        -0.153200         0.151386        -2.453032
 H         0.296832         1.140841        -4.703420
 H         1.610806         2.574431        -4.594325
 H         3.463166         1.198612        -2.467438
 H         2.772213         2.735944        -2.247265
 H         2.379595         1.956950         0.238401
