19
Iteration:  4709
 C         0.154554        -0.270669         0.477191
 C         1.171137         0.195617        -0.683738
 C         0.569374         0.163735        -2.121814
 C         1.603513         1.051693        -2.971267
 C         1.432594         1.417685        -4.419261
 O         2.457016         0.446718        -4.143331
 C         2.526841         1.849730        -2.024027
 C         2.185821         1.201969        -0.601204
 O         2.524764        -0.179657        -0.581774
 H         0.778630        -0.327792         1.374581
 H        -0.616056         0.546189         0.657048
 H        -0.376715        -1.172032         0.163809
 H         0.541363        -0.920284        -2.395730
 H        -0.385935         0.686168        -2.125533
 H         0.563959         0.993242        -4.863261
 H         1.737938         2.424201        -4.688811
 H         3.543320         1.708560        -2.215481
 H         2.266585         2.917499        -2.139407
 H         2.369268         1.873537         0.341320
