19
Iteration:  4194charge 0 multiplicity 1
 C         0.080253        -0.149349         0.443763
 C         1.096965         0.214753        -0.654691
 C         0.833940        -0.038203        -2.138914
 C         1.726544         0.976173        -2.944477
 C         1.367792         1.527280        -4.309762
 O         2.276627         0.420219        -4.230345
 C         2.584182         1.758485        -1.979765
 C         2.227666         1.316754        -0.630222
 O         2.442686        -0.104107        -0.565355
 H         0.427884        -1.155831         0.769790
 H         0.030777         0.369405         1.358512
 H        -0.893376        -0.294097        -0.085488
 H         1.233905        -1.054510        -2.511284
 H        -0.143969        -0.028294        -2.516349
 H         0.359473         1.387080        -4.746143
 H         1.784035         2.498310        -4.641179
 H         3.636090         1.595013        -2.153533
 H         2.458525         2.846888        -2.108728
 H         2.436128         1.832789         0.313783
