19
Iteration:   940
 C        -0.017235         0.050697         0.286986
 C         1.089648         0.277379        -0.736860
 C         0.981279        -0.166114        -2.206434
 C         1.769298         0.845920        -3.022314
 C         1.124924         1.657612        -4.052089
 O         2.220696         0.614543        -4.345861
 C         2.847041         1.488795        -2.090244
 C         2.253878         1.221321        -0.704358
 O         2.419140        -0.153491        -0.224184
 H         0.144260         0.736858         1.156716
 H        -1.050658         0.348783        -0.134894
 H        -0.006010        -0.895236         0.712259
 H         1.295217        -1.220057        -2.302466
 H        -0.024657        -0.068055        -2.635138
 H         0.040775         1.378953        -4.334663
 H         1.413429         2.706312        -4.308291
 H         3.775872         0.943209        -2.299355
 H         3.222286         2.575635        -2.166889
 H         2.213642         1.933754         0.119030
