19
Iteration:  2657charge 0 multiplicity 1
 C         0.079323         0.081927         0.286916
 C         1.196602         0.242108        -0.705312
 C         0.926276        -0.129233        -2.160190
 C         1.718343         0.918473        -2.958937
 C         1.262548         1.473262        -4.239572
 O         2.222288         0.512681        -4.248863
 C         2.580543         1.722792        -1.967745
 C         2.216655         1.220701        -0.635832
 O         2.486668        -0.190928        -0.408308
 H        -0.569290        -0.718749        -0.225899
 H         0.601469        -0.249015         1.169094
 H        -0.553067         0.970246         0.488228
 H         1.349698        -1.122665        -2.267966
 H        -0.102040         0.019346        -2.580692
 H         0.278260         1.191173        -4.638051
 H         1.503895         2.529703        -4.479187
 H         3.683716         1.672357        -2.267375
 H         2.261579         2.777996        -2.073796
 H         2.289544         1.740813         0.341383
