19
Iteration:   999charge 0 multiplicity 1
 C         0.072644        -0.080939         0.306811
 C         1.217724         0.144712        -0.674894
 C         0.704337         0.046204        -2.198209
 C         1.660956         0.917411        -2.975645
 C         1.395579         1.596741        -4.346917
 O         2.185827         0.482001        -4.203543
 C         2.732936         1.634705        -1.994936
 C         2.194717         1.215350        -0.652230
 O         2.540961        -0.142229        -0.336680
 H         0.523960         0.199937         1.358745
 H        -0.723486         0.585273         0.106838
 H        -0.404861        -1.119110         0.229320
 H         0.485520        -0.959370        -2.595637
 H        -0.226183         0.650362        -2.170701
 H         0.453069         1.404480        -4.810201
 H         1.911548         2.514918        -4.620169
 H         3.766106         1.285538        -2.193642
 H         2.455020         2.659021        -2.013939
 H         2.236658         1.969594         0.169901
