19
Iteration:  4595charge 0 multiplicity 1
 C         0.149090        -0.182707         0.464750
 C         1.127805         0.174690        -0.707342
 C         0.768206        -0.031093        -2.190789
 C         1.802370         0.893589        -3.040498
 C         1.229594         1.498494        -4.281019
 O         2.370765         0.576122        -4.307950
 C         2.599769         1.709512        -2.015595
 C         2.056373         1.256744        -0.642877
 O         2.507074        -0.068720        -0.359371
 H         0.238767        -1.268156         0.816029
 H         0.530568         0.346013         1.314055
 H        -0.852488         0.252204         0.188930
 H         0.820678        -1.070830        -2.401978
 H        -0.225065         0.211772        -2.534597
 H         0.338140         1.056773        -4.769674
 H         1.717274         2.449650        -4.512372
 H         3.739847         1.628163        -1.931750
 H         2.547363         2.789159        -2.243440
 H         2.152192         1.981505         0.091295
