19
Iteration:  1949charge 0 multiplicity 1
 C         0.123555        -0.030253         0.476647
 C         1.160259         0.200800        -0.701359
 C         0.627419         0.137599        -2.166160
 C         1.660637         0.996817        -2.961207
 C         1.384529         1.347742        -4.472002
 O         2.450195         0.473090        -4.091917
 C         2.425085         1.836667        -1.932351
 C         2.283469         1.163965        -0.609473
 O         2.572380        -0.259080        -0.617188
 H        -0.728264        -0.778341         0.144602
 H         0.477549        -0.340311         1.535677
 H        -0.337270         0.854579         0.688277
 H         0.572346        -0.783140        -2.768256
 H        -0.411384         0.523794        -2.202650
 H         0.534005         0.745966        -4.925804
 H         1.614659         2.296796        -5.010458
 H         3.512665         2.064665        -1.996093
 H         1.865917         2.764832        -1.710110
 H         2.422960         1.703284         0.358960
