19
Iteration:  2093
 C        -0.063148        -0.041062         0.321285
 C         1.117997         0.242045        -0.625309
 C         0.948257        -0.124087        -2.147282
 C         1.723870         0.954986        -2.975459
 C         1.182215         1.413662        -4.291823
 O         2.306128         0.516534        -4.250621
 C         2.645004         1.764652        -2.043700
 C         2.216743         1.255750        -0.631565
 O         2.580704        -0.107394        -0.410726
 H        -0.488170         0.921486         0.473650
 H        -0.934551        -0.763951        -0.091070
 H         0.136501        -0.443053         1.264495
 H         1.516660        -1.103572        -2.404205
 H        -0.099835        -0.432498        -2.354109
 H         0.299069         1.146166        -4.920244
 H         1.525086         2.504362        -4.455428
 H         3.781282         1.704429        -2.019589
 H         2.375943         2.866642        -2.094676
 H         2.302931         1.787684         0.290277
