19
Iteration:  3867
 C         0.204989        -0.450859         0.343711
 C         1.159849         0.317093        -0.668673
 C         0.529778         0.317887        -2.084435
 C         1.483323         1.131562        -2.985294
 C         1.633685         1.256737        -4.511718
 O         2.336901         0.238254        -3.774620
 C         2.395306         2.050679        -2.023085
 C         2.279918         1.255680        -0.656481
 O         2.574244        -0.150985        -0.726872
 H        -0.482814        -1.272564         0.038539
 H         0.862986        -0.811413         1.245621
 H        -0.432941         0.362725         0.689138
 H         0.314760        -0.661132        -2.470617
 H        -0.468304         0.920924        -1.828397
 H         0.840106         0.946987        -5.183746
 H         2.274925         2.058889        -4.887293
 H         3.431056         2.057029        -2.376116
 H         1.924296         3.102613        -1.991117
 H         2.766948         1.673498         0.204983
