19
Iteration:  1854charge 0 multiplicity 1
 C         0.322411        -0.411190         0.250787
 C         1.114537         0.283903        -0.740404
 C         0.506312         0.517107        -2.128776
 C         1.642826         1.105152        -2.909201
 C         1.548769         1.245172        -4.437421
 O         2.302443         0.170771        -3.726875
 C         2.424217         1.961776        -1.994545
 C         2.316637         1.254659        -0.636992
 O         2.478662        -0.189984        -0.729509
 H         1.087693        -1.015441         0.646023
 H         0.019200         0.323549         1.145937
 H        -0.610003        -0.914157        -0.067045
 H        -0.077265        -0.410182        -2.535136
 H        -0.326602         1.248664        -2.136007
 H         0.721242         1.012490        -5.141729
 H         2.129377         2.098914        -4.860428
 H         3.373581         1.993737        -2.545353
 H         1.881181         2.918092        -1.853081
 H         2.646301         1.885017         0.197847
