19
Iteration:  2598
 C         0.097119        -0.126216         0.365316
 C         1.142751         0.285407        -0.672834
 C         0.807897        -0.065803        -2.142880
 C         1.646229         0.923861        -3.080017
 C         1.266931         1.543517        -4.326206
 O         2.357943         0.469286        -4.279204
 C         2.571433         1.660498        -2.083802
 C         2.231661         1.314816        -0.624604
 O         2.511876        -0.077006        -0.271895
 H        -0.878227        -0.152771         0.180580
 H         0.151576        -1.190527         0.626741
 H         0.204951         0.363687         1.434755
 H         1.073194        -1.143098        -2.293710
 H        -0.266765         0.021920        -2.520646
 H         0.405763         1.137538        -4.836374
 H         1.571252         2.560364        -4.488195
 H         3.577279         1.338557        -2.256345
 H         2.620355         2.749224        -2.123734
 H         2.308045         1.934719         0.255755
