19
Iteration:  2045charge 0 multiplicity 1
 C         0.164661        -0.176110         0.361844
 C         1.081250         0.178596        -0.781726
 C         0.801241        -0.042250        -2.253169
 C         1.733129         0.927636        -2.974580
 C         1.323747         1.547314        -4.297943
 O         2.259521         0.427568        -4.274040
 C         2.668244         1.703853        -1.974375
 C         2.126337         1.279056        -0.666550
 O         2.519024         0.022964        -0.250486
 H        -0.823732         0.455402         0.405697
 H        -0.135185        -1.169975         0.373107
 H         0.688980        -0.097279         1.350014
 H         0.781717        -1.114409        -2.454302
 H        -0.325478         0.174481        -2.254693
 H         0.370678         1.253347        -4.743635
 H         1.613101         2.526947        -4.640526
 H         3.679042         1.207730        -2.069713
 H         2.752653         2.775863        -2.264767
 H         2.010688         2.088769         0.111698
