19
Iteration:  1947charge 0 multiplicity 1
 C         0.147105        -0.044314         0.478065
 C         1.138446         0.206458        -0.682489
 C         0.620795         0.143048        -2.166321
 C         1.670062         0.989243        -2.969211
 C         1.376328         1.351409        -4.480626
 O         2.456940         0.470805        -4.064225
 C         2.424767         1.834076        -1.937046
 C         2.288965         1.157584        -0.615030
 O         2.563859        -0.259047        -0.619017
 H        -0.673252        -0.807521         0.186379
 H         0.493751        -0.324654         1.408715
 H        -0.387912         0.888945         0.611500
 H         0.581491        -0.729679        -2.771275
 H        -0.447599         0.521473        -2.262640
 H         0.515597         0.813721        -4.957179
 H         1.623297         2.274741        -4.960086
 H         3.514832         2.104186        -2.089556
 H         1.873094         2.797054        -1.706442
 H         2.440007         1.738261         0.324671
