19
Iteration:  1517
 C         0.082243         0.156090         0.308597
 C         1.072065         0.252216        -0.711645
 C         1.096034        -0.296605        -2.287008
 C         1.862379         0.710539        -3.025810
 C         1.124951         1.672953        -3.943597
 O         2.125511         0.730910        -4.413157
 C         2.802093         1.423642        -2.103602
 C         2.149560         1.284330        -0.727309
 O         2.367712        -0.117962        -0.196034
 H         0.293061         0.825621         1.048186
 H        -0.903922         0.369573        -0.159274
 H         0.093610        -1.042027         0.677285
 H         1.410496        -1.360237        -2.497679
 H         0.060090        -0.298436        -2.713726
 H         0.106920         1.424822        -4.245711
 H         1.448936         2.710164        -4.004580
 H         3.713619         0.845025        -1.783197
 H         3.184399         2.503021        -2.296175
 H         2.270095         2.106402        -0.013768
