19
Iteration:  1153
 C         0.342986        -0.396861         0.302606
 C         1.022926         0.350218        -0.736113
 C         0.544176         0.534856        -2.094476
 C         1.656065         1.143408        -2.884010
 C         1.494646         1.172736        -4.338561
 O         2.366457         0.105350        -3.769080
 C         2.508917         1.931684        -1.972476
 C         2.241675         1.269174        -0.632353
 O         2.447124        -0.121499        -0.922251
 H         0.713203        -0.416906         1.284290
 H        -0.694526        -0.147367         0.339638
 H         0.399728        -1.481183         0.031682
 H         0.040057        -0.284642        -2.655293
 H        -0.194719         1.374282        -1.968741
 H         0.638426         0.734932        -4.835002
 H         1.855107         2.126288        -4.729460
 H         3.628413         1.990142        -2.186255
 H         2.206720         3.031863        -1.961695
 H         2.503232         1.585113         0.387469
