19
Iteration:  1401
 C        -0.007386         0.151082         0.217039
 C         1.200261         0.228369        -0.724594
 C         0.942675        -0.279232        -2.235785
 C         1.696955         0.873675        -2.960948
 C         1.176735         1.558487        -4.108382
 O         2.217908         0.688813        -4.338029
 C         2.741572         1.513068        -2.030461
 C         2.317691         1.221643        -0.654342
 O         2.435366        -0.141279        -0.263647
 H         0.422630         0.652227         1.298720
 H        -0.955371         0.707579         0.084794
 H        -0.164153        -0.842980         0.446591
 H         1.190739        -1.330225        -2.424188
 H        -0.138094        -0.257173        -2.443967
 H         0.186282         1.211818        -4.525098
 H         1.326095         2.644666        -4.207777
 H         3.701246         1.014698        -2.172610
 H         2.798316         2.554252        -2.251895
 H         2.208798         2.005637         0.172074
