19
Iteration:  4559
 C         0.127279        -0.164196         0.171963
 C         1.133524         0.259046        -0.714746
 C         0.895045        -0.021016        -2.185994
 C         1.682064         0.981959        -2.973278
 C         1.195949         1.436069        -4.315232
 O         2.250765         0.440675        -4.063483
 C         2.573711         1.776421        -2.033063
 C         2.162775         1.321282        -0.589933
 O         2.592697        -0.129712        -0.369674
 H        -0.437218        -1.018064        -0.265512
 H         0.572535        -0.325582         1.194805
 H        -0.604947         0.558534         0.280340
 H         1.478411        -0.938202        -2.393470
 H        -0.135141        -0.011965        -2.513399
 H         0.192576         1.321363        -4.742379
 H         1.580487         2.435864        -4.611128
 H         3.660165         1.419220        -2.273260
 H         2.348969         2.864629        -1.975479
 H         2.454565         1.967239         0.302912
