19
Iteration:  1072
 C         0.274692        -0.088943         0.517934
 C         1.131776         0.255272        -0.806655
 C         0.541452         0.338955        -2.155615
 C         1.616692         1.037210        -2.923764
 C         1.563656         1.283918        -4.365997
 O         2.429602         0.347920        -3.849389
 C         2.358368         1.914663        -1.943049
 C         2.245129         1.121249        -0.683401
 O         2.459299        -0.323051        -0.883971
 H         1.015834        -0.300875         1.403337
 H        -0.376600         0.776101         0.805287
 H        -0.348184        -0.855007         0.385821
 H         0.337079        -0.652882        -2.556929
 H        -0.267965         1.077612        -2.233806
 H         0.742345         0.940893        -5.085568
 H         2.068465         2.274222        -4.653503
 H         3.404413         1.928972        -2.261889
 H         1.765467         2.849437        -1.670679
 H         2.508022         1.525627         0.303219
