19
Iteration:  1614
 C         0.064344         0.159580         0.282451
 C         1.093372         0.154243        -0.754682
 C         0.979840        -0.193847        -2.211722
 C         1.799316         0.867426        -2.983966
 C         1.168494         1.582882        -4.045524
 O         2.209401         0.620520        -4.434051
 C         2.732250         1.572653        -2.003477
 C         2.228702         1.225432        -0.670069
 O         2.409578        -0.146894        -0.270502
 H         0.640987         0.161360         1.144534
 H        -0.489288         1.114953         0.327759
 H        -0.536621        -0.804130         0.198434
 H         1.306654        -1.281354        -2.206895
 H        -0.096306        -0.282920        -2.485824
 H         0.189401         1.135007        -4.257510
 H         1.244386         2.652478        -4.197170
 H         3.678849         1.061335        -2.286643
 H         2.886175         2.708042        -2.131213
 H         2.322645         1.862048         0.187661
