19
Iteration:  1371
 C         0.051067         0.054478         0.405568
 C         1.154997         0.191906        -0.605835
 C         0.864408        -0.111422        -2.245474
 C         1.735926         0.956524        -3.045982
 C         1.220876         1.631291        -4.286133
 O         2.270362         0.678544        -4.399837
 C         2.692033         1.405877        -2.053510
 C         2.165499         1.207941        -0.779975
 O         2.517920        -0.136981        -0.121783
 H         0.384896         0.557408         1.369223
 H        -1.004957         0.303252         0.177013
 H        -0.028424        -1.000733         0.651671
 H         1.122528        -1.176698        -2.330954
 H        -0.237312        -0.180891        -2.386366
 H         0.243631         1.238884        -4.741400
 H         1.369876         2.706950        -4.433821
 H         3.685122         0.910571        -2.080357
 H         3.141129         2.380055        -2.198419
 H         1.945905         1.888267         0.036176
