19
Iteration:   440
 C         0.074654         0.093842         0.390292
 C         1.120180         0.241208        -0.741845
 C         0.808222        -0.039379        -2.198581
 C         1.733477         0.935264        -3.033947
 C         1.261896         1.739038        -4.194817
 O         2.192923         0.614955        -4.339395
 C         2.858240         1.418687        -1.988822
 C         2.211612         1.175510        -0.643942
 O         2.402397        -0.323926        -0.346651
 H        -0.213682        -1.010844         0.570581
 H         0.513931         0.417782         1.320829
 H        -0.794310         0.765034         0.273409
 H         0.942811        -1.087817        -2.500218
 H        -0.203473         0.311554        -2.375028
 H         0.308219         1.467978        -4.513238
 H         1.678318         2.694892        -4.487042
 H         3.922117         0.948885        -1.945327
 H         3.110651         2.407833        -2.195350
 H         2.234487         1.976812         0.144751
