19
Iteration:  3118charge 0 multiplicity 1
 C         0.159476        -0.110065         0.390163
 C         1.094441         0.192952        -0.728851
 C         0.767270         0.006972        -2.201395
 C         1.623986         0.947434        -2.990604
 C         1.423809         1.600734        -4.265775
 O         2.261554         0.389719        -4.184674
 C         2.592429         1.732377        -2.043199
 C         2.159986         1.216896        -0.672284
 O         2.540420        -0.112520        -0.429650
 H         0.438570        -1.064694         0.985353
 H         0.400324         0.583164         1.295735
 H        -0.907908         0.008749         0.254845
 H         0.795866        -1.019802        -2.466930
 H        -0.274533         0.208717        -2.287037
 H         0.515240         1.466374        -4.834198
 H         2.005064         2.509825        -4.456997
 H         3.692869         1.456185        -2.222968
 H         2.335330         2.856942        -2.052142
 H         2.159822         1.830536         0.134211
