19
Iteration:   679charge 0 multiplicity 1
 C         0.192688         0.026119         0.433154
 C         1.111521         0.204199        -0.737434
 C         0.691501         0.104379        -2.171404
 C         1.648507         0.974441        -2.979659
 C         1.454001         1.582262        -4.296677
 O         2.303125         0.439750        -4.254541
 C         2.606621         1.706294        -1.909780
 C         2.218156         1.131778        -0.620753
 O         2.438906        -0.305160        -0.504303
 H        -0.873334         0.513402         0.247416
 H        -0.051598        -1.049088         0.532878
 H         0.677464         0.469299         1.194650
 H         0.633204        -0.948891        -2.546502
 H        -0.344618         0.504242        -2.096465
 H         0.479911         1.305585        -4.698094
 H         1.783149         2.573793        -4.649365
 H         3.661581         1.564760        -2.226627
 H         2.554759         2.809416        -2.183770
 H         2.380977         1.663024         0.336308
