19
Iteration:  4822
 C         0.313663        -0.289737         0.282956
 C         1.085560         0.246586        -0.819312
 C         0.538672         0.447022        -2.173019
 C         1.644494         1.131113        -2.926153
 C         1.425833         1.251851        -4.342760
 O         2.386818         0.300385        -3.756916
 C         2.406541         1.949166        -1.930724
 C         2.356596         1.197002        -0.641810
 O         2.467316        -0.241694        -0.777927
 H         0.356256         0.261391         1.275606
 H        -0.661621        -0.639963         0.136918
 H         0.826052        -1.226930         0.411732
 H         0.555865        -0.553653        -2.663715
 H        -0.402204         0.987869        -2.306232
 H         0.592633         0.647955        -4.717552
 H         1.844766         2.120591        -4.850720
 H         3.437758         2.087437        -2.269826
 H         1.946096         2.875825        -1.753084
 H         2.433343         1.624516         0.288391
