19
Iteration:  2322charge 0 multiplicity 1
 C         0.322564        -0.101679         0.450645
 C         1.162139         0.184857        -0.786861
 C         0.510604         0.255110        -2.147297
 C         1.616886         0.993121        -2.948248
 C         1.565363         1.267159        -4.453975
 O         2.491438         0.398948        -3.781965
 C         2.230588         1.961364        -2.028736
 C         2.196399         1.204792        -0.603684
 O         2.532724        -0.292393        -0.760735
 H        -0.225426         0.774069         0.975734
 H        -0.420678        -0.973194         0.074607
 H         0.966134        -0.458265         1.211410
 H         0.243896        -0.801794        -2.541917
 H        -0.301700         0.979669        -2.329626
 H         0.876348         0.708934        -5.122901
 H         1.812741         2.269475        -4.807911
 H         3.287619         2.189788        -2.318531
 H         1.616384         2.870784        -2.045766
 H         2.362498         1.871020         0.191855
