19
Iteration:  1516
 C         0.080791         0.153574         0.311433
 C         1.074774         0.256828        -0.713043
 C         1.097138        -0.303752        -2.286112
 C         1.864965         0.716399        -3.029602
 C         1.119174         1.670014        -3.946976
 O         2.130756         0.736569        -4.413702
 C         2.795095         1.412454        -2.099401
 C         2.145907         1.281901        -0.724899
 O         2.369397        -0.112467        -0.198214
 H         0.314221         0.814888         1.062797
 H        -0.916499         0.374992        -0.176862
 H         0.080731        -1.026625         0.665232
 H         1.415865        -1.374450        -2.454301
 H         0.039941        -0.285198        -2.670450
 H         0.108264         1.452235        -4.259585
 H         1.438549         2.722988        -4.021710
 H         3.713549         0.858018        -1.775814
 H         3.208086         2.473937        -2.298168
 H         2.301411         2.083713        -0.037667
