19
Iteration:  3614
 C         0.038309         0.014252         0.334816
 C         1.096695         0.244884        -0.614429
 C         0.846640        -0.091879        -2.099108
 C         1.638761         0.929110        -3.003060
 C         1.264690         1.443218        -4.365161
 O         2.427332         0.617832        -4.200387
 C         2.543041         1.739395        -2.055216
 C         2.231808         1.199757        -0.609896
 O         2.561047        -0.241112        -0.453485
 H        -0.770435        -0.854785         0.150412
 H         0.193052        -0.145161         1.499269
 H        -0.489945         1.095368         0.387368
 H         1.108705        -1.100189        -2.149992
 H        -0.173982         0.121386        -2.403916
 H         0.391795         0.912297        -4.803963
 H         1.443243         2.440728        -4.774468
 H         3.545547         1.593693        -2.426080
 H         2.213349         2.791199        -1.915657
 H         2.664329         1.695377         0.224333
