19
Iteration:  4243charge 0 multiplicity 1
 C         0.207974        -0.247525         0.337763
 C         1.157569         0.153135        -0.782687
 C         0.664498         0.143003        -2.204359
 C         1.655028         1.003463        -2.984056
 C         1.394137         1.418356        -4.336252
 O         2.361736         0.369592        -4.154407
 C         2.503134         1.854289        -1.989203
 C         2.155200         1.299760        -0.646931
 O         2.566226        -0.157311        -0.366193
 H        -0.153028        -1.265889         0.459683
 H         0.719588         0.006345         1.346973
 H        -0.633209         0.419538         0.211761
 H         0.277005        -0.748901        -2.621749
 H        -0.286894         0.847879        -2.148735
 H         0.422066         1.166598        -4.769646
 H         1.712754         2.384877        -4.703715
 H         3.638411         1.896217        -2.093061
 H         2.145962         2.897153        -2.038280
 H         2.317376         1.819606         0.336404
