19
Iteration:  2164charge 0 multiplicity 1
 C         0.047767        -0.033787         0.349108
 C         1.117235         0.152586        -0.693930
 C         0.884795        -0.095726        -2.111299
 C         1.635999         0.861146        -2.994430
 C         1.319931         1.514822        -4.306378
 O         2.345461         0.551289        -4.282717
 C         2.570590         1.705412        -2.003976
 C         2.178405         1.283333        -0.630911
 O         2.548409        -0.100038        -0.387473
 H        -0.963665         0.335929        -0.049425
 H        -0.122542        -1.029795         0.618965
 H         0.272477         0.544412         1.381083
 H         1.155923        -1.095057        -2.353917
 H        -0.177578        -0.121992        -2.398503
 H         0.465555         1.175512        -4.877856
 H         1.477538         2.575704        -4.419036
 H         3.542778         1.411658        -2.321303
 H         2.498139         2.788164        -2.105523
 H         2.347813         1.866097         0.330700
