19
Iteration:  3415charge 0 multiplicity 1
 C         0.305502        -0.134761         0.535774
 C         1.143585         0.122060        -0.741838
 C         0.484856         0.267586        -2.131791
 C         1.561620         1.040320        -2.959545
 C         1.708657         1.349303        -4.411023
 O         2.414104         0.307928        -3.836899
 C         2.261535         1.958296        -2.000335
 C         2.195429         1.174004        -0.722508
 O         2.552181        -0.232924        -0.834638
 H        -0.649339        -0.747181         0.440505
 H         0.977155        -0.484741         1.265946
 H        -0.278933         0.753325         0.930630
 H         0.305907        -0.734219        -2.535691
 H        -0.606011         0.833139        -2.031417
 H         0.917009         1.104048        -5.109228
 H         2.362648         2.193400        -4.695673
 H         3.198821         2.303599        -2.423666
 H         1.666577         2.854668        -1.754987
 H         2.567752         1.711295         0.210256
