19
Iteration:  2577charge 0 multiplicity 1
 C         0.100568        -0.160954         0.299418
 C         1.148305         0.203511        -0.679181
 C         0.835736        -0.061518        -2.149834
 C         1.737964         0.964149        -2.960989
 C         1.323368         1.477606        -4.342016
 O         2.214159         0.443759        -4.202037
 C         2.630924         1.724201        -2.037640
 C         2.177548         1.310809        -0.690740
 O         2.495071        -0.030584        -0.289652
 H        -0.780002         0.375639         0.251397
 H        -0.144286        -1.212857         0.171829
 H         0.688440         0.011580         1.329745
 H         1.021327        -1.117452        -2.371312
 H        -0.216927         0.225257        -2.472342
 H         0.344309         1.201248        -4.693663
 H         1.797995         2.363111        -4.705716
 H         3.594731         1.588801        -2.481703
 H         2.448878         2.783800        -2.181869
 H         2.293300         2.001558         0.141194
