19
Iteration:  1115
 C         0.373597        -0.321142         0.417425
 C         1.145520         0.268813        -0.753984
 C         0.479937         0.506932        -2.105704
 C         1.517098         1.142775        -2.968567
 C         1.751888         1.285363        -4.460861
 O         2.255838         0.149497        -3.676118
 C         2.361250         1.972863        -1.962071
 C         2.271242         1.135438        -0.689578
 O         2.471161        -0.209694        -0.870237
 H         1.063263        -0.263947         1.359336
 H        -0.608357         0.212593         0.653545
 H         0.132860        -1.321008         0.040507
 H         0.072642        -0.336263        -2.677840
 H        -0.371751         1.202753        -2.009698
 H         1.010234         0.939444        -5.233286
 H         2.544767         2.052424        -4.709812
 H         3.326360         2.216252        -2.394996
 H         1.796811         2.944708        -1.835184
 H         2.440943         1.733634         0.214179
