19
Iteration:  4267charge 0 multiplicity 1
 C         0.194560        -0.233034         0.475971
 C         1.095849         0.255922        -0.688968
 C         0.724669         0.197447        -2.168151
 C         1.707088         1.014231        -2.984407
 C         1.373027         1.325792        -4.395958
 O         2.448392         0.410864        -4.114165
 C         2.447175         1.840341        -1.933064
 C         2.153067         1.268063        -0.583249
 O         2.515045        -0.158030        -0.650160
 H        -0.442267        -1.086873         0.113228
 H         0.664177        -0.622034         1.430118
 H        -0.486075         0.517880         0.690854
 H         0.514296        -0.816180        -2.447590
 H        -0.274307         0.738651        -2.299225
 H         0.481018         0.823737        -4.866956
 H         1.646685         2.184576        -5.032553
 H         3.567974         2.018254        -2.072457
 H         1.992603         2.842775        -1.890450
 H         2.434567         1.651273         0.316146
