19
Iteration:  4192
 C         0.085319        -0.153692         0.439563
 C         1.102868         0.228614        -0.681143
 C         0.838617        -0.033476        -2.131472
 C         1.736680         0.961846        -2.951518
 C         1.357701         1.533018        -4.310313
 O         2.282469         0.424909        -4.225274
 C         2.578164         1.754495        -1.988329
 C         2.223085         1.302625        -0.621227
 O         2.439183        -0.108765        -0.554825
 H         0.386644        -1.178050         0.815745
 H         0.011115         0.438846         1.381505
 H        -0.862414        -0.286625         0.006030
 H         1.220854        -1.021323        -2.466656
 H        -0.109989         0.021146        -2.546244
 H         0.302199         1.370695        -4.717898
 H         1.747277         2.539482        -4.640718
 H         3.690714         1.685091        -2.100887
 H         2.478061         2.812264        -2.180133
 H         2.367209         1.763241         0.242883
