19
Iteration:  1029charge 0 multiplicity 1
 C         0.114892        -0.032522         0.371319
 C         1.111694         0.260505        -0.667319
 C         0.713293         0.182812        -2.229373
 C         1.638243         1.011354        -2.956450
 C         1.377090         1.403772        -4.362090
 O         2.344947         0.437206        -4.080161
 C         2.550031         1.820972        -1.981833
 C         2.268696         1.157411        -0.616830
 O         2.516612        -0.332985        -0.543935
 H         0.770760        -0.285564         1.329911
 H        -0.645169         0.745632         0.547923
 H        -0.369967        -0.887175         0.176189
 H         0.748300        -0.861767        -2.536857
 H        -0.276478         0.621273        -2.292062
 H         0.470611         0.999498        -4.918303
 H         1.695355         2.430658        -4.715436
 H         3.638349         1.655632        -2.262113
 H         2.163769         2.892245        -1.935448
 H         2.584801         1.685466         0.284570
