19
Iteration:  3960
 C         0.191380        -0.126642         0.407247
 C         1.163246         0.229937        -0.708442
 C         0.668121         0.105805        -2.144232
 C         1.543383         1.070223        -2.982533
 C         1.415122         1.409870        -4.421188
 O         2.395115         0.466842        -3.954664
 C         2.465109         1.841954        -2.043762
 C         2.299295         1.150126        -0.746627
 O         2.507671        -0.251495        -0.500909
 H         0.180283        -1.157311         0.802615
 H         0.219196         0.413145         1.375461
 H        -0.806730         0.118568        -0.074618
 H         0.729176        -1.058888        -2.465240
 H        -0.421844         0.397737        -2.260303
 H         0.606666         1.038794        -5.094755
 H         1.751156         2.393506        -4.872830
 H         3.571078         1.861344        -2.308121
 H         2.079264         2.856682        -1.857831
 H         2.554710         1.834432         0.105993
