19
Iteration:  1232
 C         0.208064         0.029815         0.475724
 C         1.082601         0.224060        -0.733828
 C         0.662157         0.051066        -2.097636
 C         1.645736         0.935247        -2.914691
 C         1.466241         1.469250        -4.235872
 O         2.414436         0.327146        -4.168382
 C         2.422680         1.823517        -1.936128
 C         2.204747         1.187086        -0.669574
 O         2.482550        -0.199622        -0.743425
 H         0.934430         0.154741         1.151855
 H        -0.530943         0.824767         0.738401
 H        -0.445898        -0.960727         0.564679
 H         0.738602        -0.988624        -2.491523
 H        -0.372685         0.229483        -2.494975
 H         0.623305         1.423453        -4.897487
 H         1.940026         2.413706        -4.302857
 H         3.503120         1.896743        -2.201143
 H         2.195166         2.941931        -1.969920
 H         2.606578         1.694610         0.209188
