19
Iteration:  1620charge 0 multiplicity 1
 C         0.077500         0.165497         0.309262
 C         1.112836         0.156438        -0.755702
 C         0.972664        -0.215822        -2.208721
 C         1.844406         0.859941        -2.970802
 C         1.212703         1.568771        -4.039333
 O         2.191961         0.632630        -4.426185
 C         2.703147         1.577947        -2.011026
 C         2.185465         1.199452        -0.677015
 O         2.406436        -0.128715        -0.339206
 H         0.669919        -0.051587         1.381271
 H        -0.530709         1.116428         0.318269
 H        -0.605808        -0.630359         0.318640
 H         1.280510        -1.242327        -2.145117
 H        -0.090686        -0.228363        -2.479347
 H         0.216129         1.174576        -4.242270
 H         1.352705         2.678904        -4.196625
 H         3.650824         1.031498        -2.104454
 H         2.764795         2.608178        -2.047483
 H         2.260626         2.058118         0.054946
