19
Iteration:  4186charge 0 multiplicity 1
 C         0.128342        -0.169679         0.439036
 C         1.100108         0.283193        -0.742533
 C         0.852215        -0.006307        -2.153596
 C         1.761462         0.916264        -2.994756
 C         1.314058         1.546092        -4.292920
 O         2.295200         0.449190        -4.204452
 C         2.598092         1.762203        -2.015630
 C         2.176370         1.232820        -0.626349
 O         2.457006        -0.139733        -0.501969
 H         0.286354        -1.137427         0.881500
 H         0.050740         0.607444         1.205770
 H        -1.012297        -0.237699         0.151302
 H         1.184760        -1.072794        -2.286706
 H        -0.224606         0.176011        -2.555602
 H         0.341742         1.259524        -4.594108
 H         1.667065         2.511424        -4.585188
 H         3.687767         1.779105        -2.016405
 H         2.390081         2.837549        -2.299641
 H         2.277186         1.871478         0.418990
