19
Iteration:  1882charge 0 multiplicity 1
 C         0.268216        -0.315952         0.476525
 C         1.106932         0.200731        -0.696299
 C         0.482222         0.435081        -2.144787
 C         1.638979         1.085929        -2.935893
 C         1.651581         1.294907        -4.426351
 O         2.308415         0.163489        -3.917977
 C         2.396454         1.933830        -1.926412
 C         2.154059         1.248513        -0.629421
 O         2.596099        -0.143472        -0.823994
 H         0.878156        -1.325872         0.639274
 H         0.264908         0.426932         1.286664
 H        -0.748913        -0.533094         0.192007
 H         0.031683        -0.391460        -2.665119
 H        -0.287594         1.260834        -2.074640
 H         0.720984         1.177041        -5.052907
 H         2.315625         2.098063        -4.707794
 H         3.434034         1.850504        -2.301914
 H         1.985472         2.968806        -1.933216
 H         2.403777         1.862549         0.261270
