19
Iteration:  3272
 C         0.352938        -0.231529         0.544887
 C         1.032789         0.276023        -0.684159
 C         0.563253         0.146819        -2.113225
 C         1.627600         0.964260        -2.977335
 C         1.528001         1.397332        -4.383361
 O         2.454554         0.417411        -4.022593
 C         2.446271         1.818709        -2.076560
 C         2.154275         1.265118        -0.639579
 O         2.412815        -0.150766        -0.675152
 H         0.296914        -1.364817         0.627447
 H         0.764068         0.389817         1.326420
 H        -0.797228        -0.181331         0.413702
 H         0.547250        -0.863151        -2.442824
 H        -0.401157         0.665722        -2.378015
 H         0.755833         1.044824        -5.088035
 H         1.900820         2.391730        -4.583835
 H         3.481194         1.685345        -2.495801
 H         2.326191         2.904509        -2.077991
 H         2.634189         1.741854         0.196955
