19
Iteration:  1117charge 0 multiplicity 1
 C         0.365598        -0.340623         0.401140
 C         1.130616         0.286919        -0.758780
 C         0.470823         0.485593        -2.090372
 C         1.542672         1.148076        -2.978049
 C         1.743620         1.288653        -4.463219
 O         2.248066         0.134805        -3.659804
 C         2.377332         1.971926        -1.959773
 C         2.276097         1.141260        -0.672534
 O         2.460453        -0.188791        -0.886018
 H         1.087969        -0.257740         1.354001
 H        -0.571913         0.161068         0.608742
 H         0.167433        -1.268198         0.086171
 H         0.112112        -0.349012        -2.700593
 H        -0.350778         1.212532        -1.997466
 H         0.975960         0.969980        -5.215899
 H         2.522149         2.089594        -4.754838
 H         3.407501         2.194161        -2.368250
 H         1.717207         2.907464        -1.860234
 H         2.559285         1.732215         0.225777
