19
Iteration:  1457
 C        -0.031236         0.133978         0.006916
 C         1.246976         0.235113        -0.734650
 C         1.064829        -0.216593        -2.197421
 C         1.746009         0.895159        -2.978554
 C         1.063491         1.633061        -4.062096
 O         2.024218         0.549046        -4.408436
 C         2.837745         1.559417        -1.996071
 C         2.285610         1.166520        -0.575075
 O         2.494466        -0.133065        -0.127192
 H         0.194596         0.220118         1.227124
 H        -0.638010         1.029146        -0.284122
 H        -0.551544        -0.756527        -0.095912
 H         1.678010        -1.113333        -2.301682
 H        -0.010235        -0.332138        -2.377399
 H         0.007068         1.357229        -4.337361
 H         1.436728         2.623141        -4.359031
 H         3.859521         1.156615        -2.002930
 H         2.832568         2.609384        -2.245969
 H         2.177278         1.992020         0.175948
