19
Iteration:  1898charge 0 multiplicity 1
 C         0.306336        -0.267678         0.481344
 C         1.067845         0.265897        -0.778590
 C         0.544054         0.317702        -2.167421
 C         1.605367         1.027582        -2.973846
 C         1.608401         1.401047        -4.406331
 O         2.325010         0.221701        -3.872449
 C         2.409633         1.898830        -1.982172
 C         2.202767         1.198637        -0.608391
 O         2.529241        -0.124642        -0.807486
 H         0.478506        -1.217860         0.913545
 H         0.573068         0.362963         1.471487
 H        -0.830269        -0.179908         0.359765
 H         0.288658        -0.787230        -2.445342
 H        -0.438205         0.771486        -2.210691
 H         0.808544         1.135384        -5.098728
 H         2.245381         2.205976        -4.865847
 H         3.490490         1.921474        -2.068270
 H         2.088186         2.946947        -1.962395
 H         2.543924         1.500971         0.385787
