19
Iteration:   601
 C         0.255862        -0.286049         0.354284
 C         1.048178         0.181856        -0.818031
 C         0.434573         0.660605        -2.061563
 C         1.624805         1.224475        -2.881497
 C         1.641960         1.274961        -4.397043
 O         2.266758         0.100804        -3.748643
 C         2.486589         1.987061        -1.920608
 C         2.317448         1.090265        -0.656594
 O         2.533762        -0.316386        -0.932189
 H        -0.801991        -0.562975         0.125587
 H         0.907368        -1.152366         0.837784
 H         0.163975         0.476654         1.046340
 H        -0.156310        -0.083979        -2.604547
 H        -0.171342         1.561776        -1.772343
 H         0.701257         1.321187        -4.984529
 H         2.550785         1.692639        -4.938120
 H         3.444812         2.302355        -2.303325
 H         2.009243         3.061729        -1.840554
 H         2.678702         1.536385         0.279561
