19
Iteration:  4383
 C         0.342953        -0.439330         0.353235
 C         1.069654         0.295374        -0.752794
 C         0.503920         0.393039        -2.119921
 C         1.518616         1.162792        -2.918497
 C         1.556700         1.180849        -4.394178
 O         2.419183         0.274009        -3.729676
 C         2.447731         1.971294        -1.956784
 C         2.178611         1.302227        -0.703558
 O         2.474897        -0.110873        -0.839421
 H         0.711201        -1.439482         0.200444
 H         0.783288        -0.203386         1.397675
 H        -0.755226        -0.455071         0.489093
 H         0.566904        -0.616414        -2.492166
 H        -0.513531         0.707117        -2.113551
 H         0.802940         0.770579        -5.001272
 H         2.011719         1.899694        -5.007921
 H         3.463578         1.774498        -2.258968
 H         2.367569         3.084973        -2.031581
 H         2.681655         1.800122         0.218484
