19
Iteration:  2447charge 0 multiplicity 1
 C         0.280282        -0.187067         0.371446
 C         1.110918         0.306421        -0.768180
 C         0.545418         0.167677        -2.186333
 C         1.632348         0.960947        -2.927109
 C         1.479263         1.342002        -4.372798
 O         2.428325         0.232130        -3.892463
 C         2.379253         2.005221        -1.941823
 C         2.219780         1.247440        -0.671411
 O         2.552388        -0.149662        -0.714949
 H        -0.690497         0.260159         0.264095
 H         0.248704        -1.257636         0.444474
 H         0.573183         0.233151         1.473300
 H         0.447700        -0.812894        -2.531459
 H        -0.485770         0.513300        -2.053022
 H         0.661340         0.924352        -4.936469
 H         1.949077         2.277039        -4.686201
 H         3.440644         2.079360        -2.172349
 H         1.857468         2.973478        -2.051158
 H         2.396608         1.694041         0.301427
