19
Iteration:   238
 C        -0.099497         0.199771         0.062115
 C         1.173410         0.262708        -0.724764
 C         1.005443        -0.207242        -2.214009
 C         1.759908         0.885215        -2.922508
 C         1.153150         1.813772        -3.981363
 O         2.002315         0.694942        -4.362496
 C         2.964363         1.336904        -2.031245
 C         2.358855         1.167779        -0.660716
 O         2.387361        -0.281489        -0.222121
 H        -0.326212        -0.828528         0.256296
 H         0.079506         0.736467         1.136026
 H        -0.989645         0.402083        -0.437824
 H         1.447573        -1.232366        -2.329705
 H         0.000062        -0.269889        -2.631998
 H         0.102285         1.832508        -4.316324
 H         1.692160         2.799717        -4.102539
 H         3.731727         0.575787        -2.162118
 H         3.438676         2.372492        -2.137747
 H         2.639711         1.814852         0.134109
