19
Iteration:  1513charge 0 multiplicity 1
 C         0.062838         0.131425         0.313709
 C         1.095213         0.265222        -0.731009
 C         1.087087        -0.327987        -2.277894
 C         1.869439         0.744097        -3.041734
 C         1.108093         1.662287        -3.956234
 O         2.145688         0.750927        -4.417237
 C         2.786309         1.384479        -2.077875
 C         2.136220         1.268613        -0.722715
 O         2.376406        -0.092172        -0.203718
 H         0.377001         0.828015         1.184606
 H        -0.919984         0.384224        -0.172822
 H         0.031515        -0.858443         0.612928
 H         1.439480        -1.369289        -2.295054
 H         0.012559        -0.259251        -2.541002
 H         0.085847         1.513605        -4.306821
 H         1.401102         2.736471        -4.061029
 H         3.718703         0.878937        -1.821915
 H         3.219115         2.337743        -2.316767
 H         2.379490         2.058847        -0.043784
