19
Iteration:    30
 C         0.222836        -0.299340         0.291917
 C         1.154701         0.244029        -0.798855
 C         0.475090         0.709347        -2.107002
 C         1.650568         1.174516        -2.930998
 C         1.661748         1.307054        -4.377021
 O         2.206280         0.160026        -3.756842
 C         2.434614         1.972124        -1.892785
 C         2.362437         1.034494        -0.602490
 O         2.468426        -0.344660        -0.885056
 H         0.254209        -1.383151         0.262498
 H         0.801173         0.192894         1.285209
 H        -0.764112         0.029176         0.345807
 H        -0.074775        -0.185947        -2.557754
 H        -0.287471         1.446176        -1.791385
 H         0.749021         0.953311        -4.831130
 H         2.129754         2.015273        -5.038580
 H         3.454056         2.166734        -2.289067
 H         2.255567         3.075708        -1.991649
 H         2.988031         1.244136         0.265057
