19
Iteration:   609
 C         0.205644        -0.263802         0.359350
 C         1.107629         0.221586        -0.801174
 C         0.457364         0.620615        -2.091851
 C         1.660022         1.196241        -2.976662
 C         1.638510         1.303830        -4.438307
 O         2.215674         0.158165        -3.751889
 C         2.486953         1.897541        -1.934507
 C         2.342233         1.058742        -0.603440
 O         2.524227        -0.260344        -0.856516
 H        -0.691234        -0.698080         0.112716
 H         0.801505        -1.232214         0.630644
 H         0.288468         0.502005         1.245122
 H        -0.077590        -0.116367        -2.674422
 H        -0.241873         1.433313        -1.862780
 H         0.618834         1.094908        -4.912240
 H         2.320558         2.001251        -5.018874
 H         3.496014         2.182182        -2.199065
 H         2.022116         2.900909        -1.714561
 H         2.692099         1.458210         0.347239
