19
Iteration:   179
 C         0.138490         0.123721         0.427630
 C         1.108897         0.164373        -0.720784
 C         0.776465         0.122532        -2.189455
 C         1.706841         0.998775        -2.995149
 C         1.321606         1.618013        -4.239394
 O         2.321201         0.563041        -4.269579
 C         2.655668         1.599118        -1.990354
 C         2.239826         1.091329        -0.627730
 O         2.371526        -0.436772        -0.470497
 H        -0.762992        -0.517440         0.265742
 H         0.545003        -0.247219         1.254122
 H        -0.009567         1.286684         0.644753
 H         1.048460        -0.926762        -2.304364
 H        -0.220065         0.329434        -2.597832
 H         0.297968         1.400801        -4.693564
 H         1.760834         2.591103        -4.582401
 H         3.761030         1.455362        -2.203284
 H         2.554412         2.666309        -1.890057
 H         2.413513         1.637725         0.347194
