19
Iteration:   498
 C         0.148790        -0.110702         0.391430
 C         1.143348         0.217237        -0.730876
 C         0.603460         0.416007        -2.142370
 C         1.642779         1.052106        -2.917840
 C         1.531229         1.513181        -4.302373
 O         2.219242         0.298713        -4.094685
 C         2.578789         1.778104        -1.958635
 C         2.389717         1.064503        -0.563637
 O         2.456816        -0.360273        -0.708779
 H         0.004159        -1.066696         0.801253
 H         0.333097         0.608253         1.137341
 H        -0.914411         0.160209        -0.057762
 H         0.234303        -0.518950        -2.585177
 H        -0.261885         1.091359        -2.126782
 H         0.544429         1.455212        -4.857581
 H         2.091750         2.400757        -4.635085
 H         3.620374         1.578918        -2.259339
 H         2.268433         2.832769        -1.858745
 H         2.656691         1.582585         0.366448
