19
Iteration:  3741charge 0 multiplicity 1
 C         0.157857        -0.137024         0.474549
 C         1.147607         0.156555        -0.726258
 C         0.691870         0.178485        -2.145215
 C         1.739618         1.063994        -2.967822
 C         1.428586         1.408809        -4.372463
 O         2.328195         0.258282        -4.035923
 C         2.486920         1.943334        -1.939644
 C         2.135580         1.227029        -0.629267
 O         2.576388        -0.221527        -0.702638
 H         0.173766        -1.263235         0.637662
 H         0.268093         0.377462         1.381000
 H        -0.965772         0.023158         0.139048
 H         0.391934        -0.794537        -2.722533
 H        -0.229445         0.787786        -2.277868
 H         0.495949         1.167276        -4.907563
 H         1.877309         2.365824        -4.702862
 H         3.584888         2.108909        -2.035078
 H         2.115239         2.981082        -1.965404
 H         2.217442         1.873654         0.322915
