19
Iteration:  3723charge 0 multiplicity 1
 C         0.208893        -0.223478         0.368267
 C         1.146188         0.244795        -0.760931
 C         0.645796         0.235990        -2.224872
 C         1.702478         1.021322        -2.960230
 C         1.384993         1.358222        -4.364616
 O         2.338523         0.376086        -4.065823
 C         2.544775         1.836973        -1.961970
 C         2.199963         1.225497        -0.574876
 O         2.464539        -0.152472        -0.527046
 H         0.342765        -1.267389         0.782875
 H         0.550244         0.529938         1.150959
 H        -0.769087        -0.216439         0.066108
 H         0.702934        -0.759471        -2.696840
 H        -0.409593         0.562885        -2.173117
 H         0.407662         0.935004        -4.682672
 H         1.741732         2.208739        -4.972216
 H         3.613905         1.682412        -2.215324
 H         2.341082         2.963425        -1.965091
 H         2.482423         1.712621         0.324778
