19
Iteration:  3434charge 0 multiplicity 1
 C         0.242810        -0.115893         0.405999
 C         1.200624         0.289221        -0.732148
 C         0.558276         0.222688        -2.124769
 C         1.554418         0.993811        -2.951000
 C         1.562820         1.415457        -4.401521
 O         2.428589         0.291843        -3.821260
 C         2.241819         1.943549        -1.995779
 C         2.342967         1.154336        -0.704066
 O         2.514397        -0.275044        -0.748399
 H        -0.405322        -0.975217        -0.148461
 H         0.618012        -0.442599         1.376687
 H        -0.355319         0.711336         0.588551
 H         0.230025        -0.820683        -2.291057
 H        -0.402187         0.572222        -2.028771
 H         0.924299         1.020413        -5.207851
 H         2.005798         2.395152        -4.605292
 H         3.207997         2.226426        -2.508788
 H         1.795879         2.938390        -1.864542
 H         2.705211         1.580065         0.227204
