19
Iteration:  3173charge 0 multiplicity 1
 C         0.114478        -0.126735         0.371535
 C         1.128598         0.269097        -0.606384
 C         0.724990         0.003184        -2.191407
 C         1.687844         0.932614        -2.998128
 C         1.269635         1.435078        -4.308798
 O         2.366725         0.505799        -4.152978
 C         2.607139         1.800574        -2.064323
 C         2.239683         1.263200        -0.643386
 O         2.510617        -0.182638        -0.452143
 H        -0.445441        -1.020765        -0.135747
 H         0.423898        -0.435565         1.419326
 H        -0.634924         0.695765         0.512353
 H         0.772730        -1.038459        -2.339635
 H        -0.319456         0.172490        -2.307415
 H         0.367792         1.030884        -4.758561
 H         1.615502         2.389464        -4.708823
 H         3.725265         1.742534        -2.194575
 H         2.515910         2.901352        -2.309986
 H         2.527284         1.791311         0.180159
