19
Iteration:   783charge 0 multiplicity 1
 C        -0.078880         0.164298         0.130859
 C         1.213973         0.189205        -0.752080
 C         1.116945        -0.386462        -2.225359
 C         1.849931         0.843826        -3.062337
 C         1.071542         1.776342        -3.970007
 O         1.992644         0.704260        -4.427570
 C         2.966123         1.343982        -2.032536
 C         2.239025         1.310928        -0.679972
 O         2.378456        -0.109832        -0.077408
 H        -0.013892         0.979398         0.717306
 H        -1.036128         0.168659        -0.437073
 H        -0.069450        -0.816473         0.763042
 H         1.624754        -1.365438        -2.164044
 H         0.100783        -0.675885        -2.590516
 H         0.032953         1.651232        -4.287465
 H         1.626628         2.735930        -4.147339
 H         3.855208         0.641101        -2.024454
 H         3.128777         2.424132        -2.248851
 H         2.110036         2.171052        -0.019223
