19
Iteration:  2653
 C         0.095962         0.072753         0.279196
 C         1.168915         0.237752        -0.739326
 C         0.933291        -0.142966        -2.168224
 C         1.720725         0.927668        -2.973680
 C         1.252201         1.474326        -4.197906
 O         2.236094         0.507743        -4.235284
 C         2.569002         1.730705        -1.990866
 C         2.213450         1.208665        -0.642112
 O         2.487830        -0.170108        -0.405009
 H        -0.592718        -0.603194        -0.042533
 H         0.541730        -0.333350         1.208757
 H        -0.518358         1.040575         0.563224
 H         1.357258        -1.138403        -2.396398
 H        -0.108601         0.094118        -2.539822
 H         0.254643         1.183943        -4.526796
 H         1.597171         2.449763        -4.529791
 H         3.606804         1.670016        -2.130986
 H         2.367192         2.786607        -2.120685
 H         2.319738         1.660792         0.335417
