19
Iteration:  2664charge 0 multiplicity 1
 C         0.059194         0.044028         0.276964
 C         1.156248         0.238861        -0.691686
 C         0.910569        -0.083090        -2.165672
 C         1.718507         0.890647        -2.937498
 C         1.213998         1.521567        -4.293814
 O         2.250828         0.494289        -4.270384
 C         2.618781         1.740763        -1.982026
 C         2.259896         1.254644        -0.586061
 O         2.512753        -0.231795        -0.395298
 H        -0.486983        -0.757152        -0.029191
 H         0.449047        -0.202638         1.277354
 H        -0.625485         1.013392         0.323247
 H         1.254805        -1.129573        -2.256935
 H        -0.199378        -0.322619        -2.402400
 H         0.305432         1.182152        -4.791981
 H         1.494725         2.558450        -4.453788
 H         3.612076         1.686362        -2.311615
 H         2.233712         2.754018        -1.950475
 H         2.352263         2.047262         0.186146
