19
Iteration:  3112charge 0 multiplicity 1
 C         0.152449        -0.093078         0.403425
 C         1.132441         0.233866        -0.701865
 C         0.748578        -0.021366        -2.172525
 C         1.642137         0.982392        -2.974716
 C         1.413699         1.563057        -4.271166
 O         2.262234         0.400442        -4.177305
 C         2.559638         1.688429        -2.067155
 C         2.206777         1.205920        -0.661304
 O         2.530567        -0.104861        -0.457005
 H         0.356575        -1.045863         0.804061
 H         0.185242         0.578527         1.207370
 H        -0.931388        -0.178438        -0.009152
 H         0.983181        -1.010057        -2.738957
 H        -0.333156         0.342943        -2.268286
 H         0.499887         1.549122        -4.898484
 H         1.994457         2.492460        -4.372186
 H         3.602804         1.545326        -2.131998
 H         2.201120         2.716581        -2.034642
 H         2.338550         1.888218         0.315331
