19
Iteration:  4175
 C         0.163641        -0.107180         0.379795
 C         1.031937         0.254038        -0.749324
 C         0.813409         0.006333        -2.265246
 C         1.795048         0.902627        -2.998398
 C         1.249092         1.499136        -4.208419
 O         2.329539         0.491786        -4.224286
 C         2.613946         1.782421        -2.009962
 C         2.141259         1.229229        -0.638036
 O         2.514256        -0.192175        -0.387094
 H         0.559462        -0.992609         0.849236
 H         0.378230         0.678084         1.103395
 H        -0.954418        -0.120947         0.045100
 H         0.867789        -1.106434        -2.439828
 H        -0.323238         0.216952        -2.401013
 H         0.374263         1.137934        -4.674091
 H         1.597160         2.451186        -4.537598
 H         3.659616         1.608471        -2.232424
 H         2.224220         2.840662        -1.984089
 H         2.269375         2.013578         0.308085
