19
Iteration:  3791
 C         0.298270        -0.204149         0.454978
 C         1.113134         0.220471        -0.752078
 C         0.535030         0.256629        -2.089776
 C         1.559875         1.063896        -2.967827
 C         1.587016         1.351645        -4.447072
 O         2.461780         0.365049        -3.814162
 C         2.306370         1.976144        -2.028357
 C         2.244895         1.137123        -0.737929
 O         2.461499        -0.252385        -0.693779
 H        -0.304854        -1.093954         0.399142
 H         1.173617        -0.304278         1.195450
 H        -0.407388         0.506612         0.844682
 H         0.513281        -0.733776        -2.415117
 H        -0.470701         0.643123        -2.328493
 H         0.819797         0.945651        -5.090783
 H         2.131464         2.174211        -4.911166
 H         3.301786         2.079625        -2.455115
 H         1.924683         3.028073        -2.005549
 H         2.660255         1.646921         0.096851
