19
Iteration:  4500charge 0 multiplicity 1
 C         0.229187        -0.062939         0.436518
 C         1.100999         0.159723        -0.769486
 C         0.748130        -0.069367        -2.185905
 C         1.716348         0.913975        -2.991094
 C         1.294076         1.397253        -4.344226
 O         2.441851         0.565354        -4.146082
 C         2.471318         1.816470        -1.950434
 C         2.136019         1.196988        -0.631858
 O         2.499149        -0.115134        -0.478296
 H        -0.288976        -1.007526         0.465053
 H         0.950086        -0.104556         1.230360
 H        -0.435386         0.883313         0.555089
 H         0.920725        -1.177542        -2.539540
 H        -0.349805         0.187309        -2.457062
 H         0.317187         1.100151        -4.820748
 H         1.555481         2.434864        -4.748462
 H         3.470770         1.756556        -2.316370
 H         2.251043         2.920831        -2.026542
 H         2.056011         1.898799         0.268510
