19
Iteration:  1519
 C         0.078369         0.149558         0.300015
 C         1.074738         0.240558        -0.717365
 C         1.086688        -0.285044        -2.286820
 C         1.856882         0.706446        -3.019068
 C         1.138363         1.676488        -3.935931
 O         2.114284         0.717569        -4.412719
 C         2.822450         1.449077        -2.107055
 C         2.157025         1.287799        -0.732154
 O         2.365066        -0.126773        -0.191301
 H         0.260503         0.890737         1.084194
 H        -0.883015         0.354995        -0.108472
 H         0.112650        -0.982866         0.686306
 H         1.408192        -1.309704        -2.560883
 H         0.108423        -0.325191        -2.794465
 H         0.103672         1.370925        -4.216649
 H         1.469220         2.692703        -3.968060
 H         3.713240         0.825030        -1.837540
 H         3.107938         2.519284        -2.297652
 H         2.196509         2.140857         0.037853
