19
Iteration:   614charge 0 multiplicity 1
 C         0.239451        -0.263076         0.364927
 C         1.145586         0.259762        -0.770403
 C         0.482087         0.619494        -2.143857
 C         1.652504         1.162026        -2.989174
 C         1.625597         1.315806        -4.450549
 O         2.198282         0.188342        -3.768781
 C         2.497699         1.882200        -1.918085
 C         2.337220         1.083119        -0.611675
 O         2.505852        -0.271176        -0.823989
 H        -0.820517        -0.637730         0.032420
 H         0.700221        -1.191484         0.707254
 H         0.186584         0.332683         1.214923
 H        -0.045243        -0.214163        -2.672722
 H        -0.318206         1.361029        -1.890485
 H         0.715683         0.993330        -4.889179
 H         2.180329         2.082959        -4.968533
 H         3.589317         1.950193        -2.174895
 H         1.959490         2.823475        -1.655190
 H         2.674375         1.425900         0.386007
