19
Iteration:  3768charge 0 multiplicity 1
 C         0.253607        -0.123210         0.409425
 C         1.193717         0.270483        -0.758403
 C         0.519890         0.157767        -2.160892
 C         1.560605         1.016832        -2.928849
 C         1.563890         1.388503        -4.350507
 O         2.408439         0.312355        -3.931814
 C         2.331383         1.853348        -1.981120
 C         2.293252         1.219147        -0.602752
 O         2.514592        -0.230720        -0.722385
 H        -0.066085        -1.190901         0.357647
 H         0.841723         0.069211         1.430512
 H        -0.694406         0.291309         0.296918
 H         0.402977        -0.833798        -2.545008
 H        -0.426917         0.703372        -2.470817
 H         0.741794         1.277134        -5.073313
 H         2.113333         2.335327        -4.525881
 H         3.243851         2.240817        -2.448039
 H         1.749425         2.850533        -1.845200
 H         2.585179         1.866818         0.151470
