19
Iteration:   570
 C         0.361983        -0.280454         0.351087
 C         1.058349         0.332406        -0.792045
 C         0.391766         0.651948        -2.083167
 C         1.560146         1.160044        -2.906242
 C         1.713149         1.278753        -4.386090
 O         2.302849         0.180847        -3.554276
 C         2.465106         1.923067        -1.916649
 C         2.386191         1.055307        -0.663295
 O         2.370962        -0.298925        -1.110700
 H        -0.498509        -1.036870         0.109458
 H         1.137791        -0.752834         1.006188
 H        -0.099510         0.398734         0.976007
 H        -0.119496        -0.237707        -2.504172
 H        -0.421980         1.410114        -1.927974
 H         0.956445         1.098858        -5.102992
 H         2.564135         1.806538        -4.825840
 H         3.455967         1.931889        -2.451762
 H         1.864084         2.819684        -1.734708
 H         2.982271         1.311513         0.232866
