19
Iteration:  1252
 C         0.246754         0.096338         0.584938
 C         1.074961         0.195141        -0.727884
 C         0.711448        -0.002851        -2.213296
 C         1.671555         0.924503        -3.010149
 C         1.366663         1.490735        -4.367434
 O         2.421606         0.510839        -4.142564
 C         2.534813         1.721637        -1.999210
 C         2.176650         1.189597        -0.640170
 O         2.450363        -0.276871        -0.557778
 H         0.750627        -0.030800         1.518215
 H        -0.533530         0.858465         0.631355
 H        -0.495697        -0.792125         0.399331
 H         0.741823        -1.106525        -2.393360
 H        -0.331843         0.286416        -2.532172
 H         0.432539         1.115275        -4.819522
 H         1.698653         2.454898        -4.700993
 H         3.628982         1.892693        -2.217480
 H         2.209398         2.816749        -2.116834
 H         2.408033         1.695899         0.293503
