19
Iteration:  2363
 C         0.286910        -0.395790         0.433215
 C         1.120771         0.276154        -0.708121
 C         0.529103         0.381158        -2.201867
 C         1.635797         1.068651        -2.932568
 C         1.603144         1.213593        -4.402646
 O         2.341005         0.177722        -3.721423
 C         2.352770         2.074864        -1.988955
 C         2.210716         1.315290        -0.670912
 O         2.539658        -0.133855        -0.861230
 H        -0.746569         0.148938         0.498695
 H         0.044316        -1.395483         0.175605
 H         0.776514        -0.357529         1.325857
 H         0.462110        -0.644638        -2.639296
 H        -0.428945         0.895351        -2.040371
 H         0.766870         0.936617        -5.041493
 H         2.257752         1.911511        -4.912026
 H         3.417099         2.254411        -2.265444
 H         1.805426         3.027788        -2.063347
 H         2.536336         1.632451         0.331232
