19
Iteration:  3607
 C         0.010767         0.023287         0.369646
 C         1.142875         0.242488        -0.670374
 C         0.817665        -0.064093        -2.060148
 C         1.669160         0.949721        -3.024279
 C         1.187171         1.397032        -4.352486
 O         2.480882         0.648978        -4.212830
 C         2.512558         1.680094        -2.019518
 C         2.306979         1.184292        -0.599080
 O         2.524416        -0.208477        -0.483471
 H        -0.678817        -0.628969         0.018134
 H         0.328387        -0.200582         1.416713
 H        -0.716048         0.859163         0.139918
 H         1.108797        -1.157380        -2.224436
 H        -0.311200         0.122271        -2.125553
 H         0.380620         0.855161        -4.840075
 H         1.472788         2.360092        -4.769462
 H         3.600780         1.558557        -2.216352
 H         2.271389         2.726828        -1.880090
 H         2.552530         1.827791         0.276925
