19
Iteration:  1732charge 0 multiplicity 1
 C         0.225825        -0.081940         0.433081
 C         1.096620         0.229963        -0.785631
 C         0.634053         0.138224        -2.213985
 C         1.645556         0.974444        -2.911781
 C         1.428933         1.507473        -4.248217
 O         2.321745         0.349811        -4.090369
 C         2.583018         1.765238        -1.999362
 C         2.269286         1.213017        -0.613656
 O         2.444238        -0.206180        -0.640713
 H         0.341530         0.567116         1.388223
 H        -0.894669         0.078234         0.150330
 H         0.405426        -1.081036         0.628997
 H         0.491924        -0.960638        -2.411695
 H        -0.325807         0.611895        -2.498606
 H         0.455103         1.303118        -4.768246
 H         1.904573         2.445621        -4.556630
 H         3.597205         1.556146        -2.316107
 H         2.504680         2.849847        -1.798809
 H         2.514432         1.689777         0.331509
