19
Iteration:  1311charge 0 multiplicity 1
 C        -0.065608        -0.063122         0.214700
 C         1.177413         0.246993        -0.758586
 C         0.849584         0.013548        -2.137465
 C         1.760111         0.867895        -2.932154
 C         1.256097         1.546723        -4.138393
 O         2.132671         0.387055        -4.218395
 C         2.752998         1.747159        -1.997501
 C         2.305032         1.236354        -0.601548
 O         2.543335        -0.116590        -0.462619
 H         0.107606         0.233955         1.277579
 H        -0.816205         0.638337        -0.173393
 H        -0.390341        -1.129150         0.120165
 H         1.127268        -1.041228        -2.311137
 H        -0.190674         0.209650        -2.478801
 H         0.255869         1.347226        -4.454543
 H         1.644877         2.546639        -4.428544
 H         3.745414         1.359838        -2.126953
 H         2.554300         2.819358        -2.201930
 H         2.569277         1.859953         0.267551
