19
Iteration:  3304charge 0 multiplicity 1
 C         0.286710        -0.305842         0.349761
 C         1.105645         0.192166        -0.750328
 C         0.562413         0.300169        -2.212600
 C         1.729469         1.087024        -2.943822
 C         1.508600         1.299397        -4.406823
 O         2.253181         0.218557        -3.930716
 C         2.463984         1.968667        -1.957421
 C         2.190717         1.224776        -0.564206
 O         2.550794        -0.094617        -0.660671
 H         0.609058        -1.371364         0.707511
 H         0.515318         0.339212         1.198112
 H        -0.749751        -0.060701         0.116178
 H         0.389511        -0.627673        -2.749764
 H        -0.358865         0.988148        -2.059832
 H         0.559031         0.986746        -4.874416
 H         2.059367         2.090662        -4.901729
 H         3.499988         2.102613        -2.292280
 H         1.920695         2.852437        -1.777785
 H         2.373024         1.835001         0.303930
