19
Iteration:  1662charge 0 multiplicity 1
 C         0.101440         0.014434         0.302374
 C         1.118766         0.240675        -0.730638
 C         0.897771        -0.109474        -2.172874
 C         1.669341         0.920701        -2.949829
 C         1.260103         1.583529        -4.217794
 O         2.217079         0.549308        -4.237948
 C         2.649969         1.559739        -2.040210
 C         2.270450         1.241320        -0.702863
 O         2.470654        -0.156786        -0.308024
 H         0.499165        -0.232951         1.278688
 H        -0.372389         0.944752         0.385128
 H        -0.576310        -0.727360        -0.133359
 H         1.240789        -1.062125        -2.532925
 H        -0.155763        -0.105462        -2.404741
 H         0.252622         1.490039        -4.598789
 H         1.790950         2.520540        -4.451966
 H         3.689587         1.248130        -2.254383
 H         2.624976         2.628225        -2.192637
 H         2.235382         1.926714         0.168569
