19
Iteration:  1279
 C         0.135002         0.023519         0.349350
 C         1.119088         0.186834        -0.771017
 C         0.810348         0.073162        -2.164763
 C         1.643494         1.014158        -2.994491
 C         1.297110         1.429771        -4.372342
 O         2.310539         0.548290        -4.203655
 C         2.570468         1.752716        -2.054208
 C         2.299069         1.083013        -0.589003
 O         2.498609        -0.254334        -0.286058
 H         0.660054         0.064962         1.360172
 H        -0.623644         0.828559         0.366667
 H        -0.559998        -0.780384         0.241175
 H         0.763456        -0.977440        -2.440599
 H        -0.265794         0.277144        -2.325054
 H         0.333898         0.980858        -4.626980
 H         1.482509         2.394584        -4.910984
 H         3.553953         1.509503        -2.401462
 H         2.655059         2.813504        -2.177240
 H         2.413553         1.746205         0.293441
