19
Iteration:   855
 C        -0.108520         0.280128        -0.029320
 C         1.193792         0.270556        -0.802588
 C         1.202536        -0.299299        -2.217956
 C         1.874622         0.745657        -3.077190
 C         0.911431         1.601620        -3.788573
 O         2.001963         0.716438        -4.422302
 C         3.017950         1.392641        -2.010992
 C         2.253233         1.183565        -0.681688
 O         2.404764        -0.083587        -0.106041
 H         0.072460         0.172825         1.194661
 H        -0.672166         1.268490        -0.181241
 H        -0.678139        -0.532050        -0.457059
 H         1.832349        -1.200556        -2.279928
 H         0.235786        -0.659224        -2.588775
 H        -0.104310         1.216926        -3.598383
 H         1.185747         2.598736        -3.994296
 H         3.948082         0.882500        -1.800224
 H         3.071233         2.414049        -2.261088
 H         2.303669         1.943476         0.099645
