19
Iteration:  4939charge 0 multiplicity 1
 C         0.133581        -0.087904         0.284633
 C         1.111943         0.156399        -0.685992
 C         0.704580         0.151030        -2.135905
 C         1.647070         1.027347        -2.931581
 C         1.235083         1.345342        -4.347191
 O         2.486896         0.426084        -4.020685
 C         2.449364         1.901847        -1.905227
 C         2.294772         1.229209        -0.607709
 O         2.586434        -0.243460        -0.703209
 H         0.716209        -0.405972         1.219091
 H        -0.456819         0.814383         0.498693
 H        -0.550136        -0.806521        -0.075610
 H         0.629731        -0.939710        -2.394768
 H        -0.271880         0.541205        -2.327430
 H         0.362987         0.844155        -4.678429
 H         1.440211         2.292979        -4.775298
 H         3.473666         1.935176        -2.161055
 H         1.901311         2.952583        -1.813928
 H         2.527531         1.488683         0.417541
