19
Iteration:   454
 C         0.130262         0.033187         0.399209
 C         1.071582         0.227059        -0.689071
 C         0.753565         0.084427        -2.242467
 C         1.775572         0.984138        -2.981247
 C         1.327214         1.683648        -4.245633
 O         2.180891         0.526430        -4.298116
 C         2.731039         1.506362        -1.988834
 C         2.315062         1.124812        -0.589742
 O         2.377295        -0.261902        -0.397417
 H        -0.011380        -1.013011         0.509081
 H         0.490095         0.530697         1.239420
 H        -0.968469         0.373623         0.041566
 H         1.006733        -0.971304        -2.483283
 H        -0.292460         0.216661        -2.468961
 H         0.268248         1.626087        -4.643479
 H         1.805836         2.642053        -4.559355
 H         3.610299         0.845249        -2.334032
 H         3.056967         2.579087        -2.083085
 H         2.693463         1.536714         0.345762
