19
Iteration:   533
 C         0.316140        -0.248115         0.467690
 C         1.095046         0.265134        -0.773025
 C         0.498047         0.611124        -2.151889
 C         1.641330         1.153292        -2.942255
 C         1.595115         1.356257        -4.397466
 O         2.335809         0.277798        -3.763426
 C         2.491990         1.858802        -1.955360
 C         2.331086         1.067895        -0.658704
 O         2.309833        -0.402530        -0.925060
 H         0.232184        -1.280080         0.574328
 H         0.893925         0.178153         1.382102
 H        -0.660695         0.307970         0.465130
 H         0.033722        -0.270753        -2.583757
 H        -0.222004         1.404470        -1.884600
 H         0.697856         1.007010        -5.022299
 H         2.357843         2.031527        -4.871437
 H         3.492830         2.021266        -2.269826
 H         2.288224         2.979472        -1.790585
 H         2.772347         1.151935         0.325256
