19
Iteration:  4778charge 0 multiplicity 1
 C         0.242257        -0.270270         0.434658
 C         1.118775         0.251361        -0.696663
 C         0.549411         0.379336        -2.114294
 C         1.566591         1.056450        -2.955866
 C         1.539872         1.318901        -4.437724
 O         2.417926         0.362022        -3.910709
 C         2.361526         1.886021        -1.935693
 C         2.257533         1.151232        -0.594869
 O         2.571882        -0.232867        -0.839327
 H         0.191475         0.532858         1.242075
 H        -0.767021        -0.366442         0.093210
 H         0.422221        -1.261087         0.778974
 H         0.379409        -0.622928        -2.534743
 H        -0.312736         1.090798        -2.012033
 H         0.719591         0.906286        -5.064829
 H         2.095990         2.222720        -4.707920
 H         3.351832         2.136714        -2.326997
 H         1.752791         2.750455        -1.831262
 H         2.555139         1.583382         0.347436
