19
Iteration:  1522
 C         0.064718         0.128640         0.293514
 C         1.098575         0.219202        -0.747267
 C         1.057920        -0.273794        -2.282657
 C         1.850826         0.724235        -3.011061
 C         1.157714         1.670784        -3.922576
 O         2.096494         0.692459        -4.413066
 C         2.860994         1.484814        -2.099622
 C         2.166879         1.291968        -0.733642
 O         2.363123        -0.133305        -0.184378
 H         0.216379         0.963804         1.149968
 H        -0.943033         0.334784        -0.045654
 H         0.122365        -0.767752         0.694926
 H         1.449109        -1.237567        -2.579708
 H         0.147667        -0.350563        -2.886423
 H         0.132062         1.332024        -4.164065
 H         1.497410         2.716575        -3.921111
 H         3.732793         0.832615        -2.001542
 H         2.968335         2.503188        -2.325385
 H         2.073782         2.102061         0.058035
