19
Iteration:   785charge 0 multiplicity 1
 C        -0.079389         0.169072         0.124848
 C         1.209765         0.182790        -0.757209
 C         1.130880        -0.405137        -2.222370
 C         1.839581         0.832424        -3.053868
 C         1.076199         1.779375        -3.972024
 O         1.993731         0.708290        -4.443017
 C         2.955449         1.337585        -2.023994
 C         2.242972         1.323271        -0.684578
 O         2.384405        -0.104688        -0.067016
 H         0.020108         0.975629         0.837070
 H        -1.142186         0.143503        -0.462164
 H        -0.098241        -0.808694         0.691025
 H         1.675035        -1.351787        -2.151485
 H         0.113739        -0.666409        -2.555836
 H        -0.027203         1.748182        -4.249303
 H         1.695322         2.749408        -4.088508
 H         3.747528         0.622991        -2.105950
 H         3.176652         2.431830        -2.275708
 H         2.125389         2.194386        -0.024205
