19
Iteration:  3819
 C         0.320145        -0.210581         0.515576
 C         1.128799         0.180054        -0.795842
 C         0.490634         0.376849        -2.174234
 C         1.650260         1.044494        -2.942444
 C         1.495960         1.207280        -4.450860
 O         2.486784         0.267353        -3.856364
 C         2.346660         2.053084        -1.829311
 C         2.158982         1.174932        -0.627638
 O         2.518445        -0.145319        -0.874795
 H        -0.500948        -0.976272         0.217661
 H         1.023237        -0.835582         1.140045
 H        -0.281169         0.625448         0.934492
 H         0.370833        -0.715721        -2.634382
 H        -0.363078         1.071060        -2.385042
 H         0.705896         0.608634        -4.972893
 H         1.939257         2.052197        -5.031264
 H         3.446089         2.029999        -2.041133
 H         1.889385         3.066359        -1.884637
 H         2.444983         1.527156         0.392677
