19
Iteration:  4597charge 0 multiplicity 1
 C         0.170324        -0.185346         0.464634
 C         1.118295         0.175501        -0.711284
 C         0.772230        -0.019152        -2.200617
 C         1.813075         0.871166        -3.052767
 C         1.229200         1.518246        -4.271920
 O         2.377561         0.577122        -4.302123
 C         2.580630         1.708331        -2.018651
 C         2.073268         1.261287        -0.652320
 O         2.503403        -0.078248        -0.347597
 H         0.227135        -1.205247         0.827416
 H         0.519677         0.419304         1.306183
 H        -0.908425         0.205203         0.206460
 H         0.782284        -1.087529        -2.354383
 H        -0.253149         0.185080        -2.496581
 H         0.383513         1.085388        -4.782892
 H         1.662007         2.445354        -4.530559
 H         3.634797         1.615250        -1.929485
 H         2.516303         2.747055        -2.299601
 H         2.109748         1.973022         0.142748
