19
Iteration:  4792charge 0 multiplicity 1
 C         0.141974        -0.290785         0.416212
 C         1.157690         0.128494        -0.665781
 C         0.525302         0.442906        -2.031622
 C         1.615232         1.148934        -2.975706
 C         1.493919         1.264196        -4.449576
 O         2.484863         0.357339        -3.865467
 C         2.338678         1.987398        -1.956346
 C         2.298807         1.201756        -0.668959
 O         2.561575        -0.272779        -0.843975
 H         0.139462         0.249373         1.313149
 H        -0.841678        -0.432717        -0.023144
 H         0.600088        -1.257891         0.798031
 H         0.167201        -0.491151        -2.477626
 H        -0.514527         0.935788        -2.028106
 H         0.617070         0.716284        -4.936477
 H         1.769315         2.113791        -5.108380
 H         3.481881         1.882932        -2.189815
 H         2.163685         3.045232        -1.836730
 H         2.674242         1.609798         0.201930
