19
Iteration:   364
 C        -0.160100         0.445299        -0.072314
 C         1.246477         0.144719        -0.820199
 C         1.219493        -0.265914        -2.299057
 C         1.881099         0.883458        -3.037318
 C         0.955321         1.750246        -3.779024
 O         1.857372         0.762462        -4.374945
 C         3.008325         1.235893        -2.060068
 C         2.389909         1.122674        -0.598823
 O         2.391575        -0.289091        -0.023795
 H        -0.797437        -0.460099        -0.420489
 H        -0.080285         0.430550         0.973426
 H        -0.772438         1.392371        -0.333757
 H         1.914664        -1.113693        -2.365671
 H         0.248045        -0.542843        -2.711444
 H        -0.076989         1.553663        -3.906009
 H         1.247618         2.754990        -4.074436
 H         3.998422         0.741180        -2.349523
 H         3.382027         2.207849        -2.146289
 H         2.306217         1.986484         0.107323
