19
Iteration:  4850
 C         0.282761        -0.342565         0.468529
 C         1.135666         0.149936        -0.747460
 C         0.524259         0.342743        -2.106654
 C         1.637544         1.066507        -2.932437
 C         1.636694         1.340294        -4.409964
 O         2.272337         0.258818        -3.913314
 C         2.429731         1.982840        -1.944603
 C         2.231033         1.230425        -0.621634
 O         2.504936        -0.137689        -0.841121
 H         0.504903         0.220660         1.392293
 H        -0.846302        -0.345646         0.291236
 H         0.447438        -1.438138         0.567349
 H         0.372129        -0.595484        -2.659276
 H        -0.292862         1.065512        -2.167949
 H         0.815106         1.080974        -5.071962
 H         2.267394         2.212484        -4.638530
 H         3.461500         2.145329        -2.273160
 H         1.881262         3.035375        -1.913407
 H         2.271407         1.753047         0.452931
