19
Iteration:  3900
 C         0.361318        -0.321856         0.377269
 C         1.085493         0.221401        -0.820628
 C         0.511381         0.289231        -2.193686
 C         1.598193         1.035395        -2.956345
 C         1.545344         1.354920        -4.346751
 O         2.355433         0.218897        -3.848192
 C         2.429289         1.976520        -1.963809
 C         2.179212         1.283889        -0.637768
 O         2.536023        -0.154643        -0.708002
 H         0.128197        -1.396347         0.367766
 H         0.915441         0.032671         1.311377
 H        -0.570990         0.304295         0.446000
 H         0.214680        -0.671057        -2.558879
 H        -0.390697         1.069676        -2.194534
 H         0.676081         1.044458        -4.912666
 H         2.089769         2.205449        -4.731558
 H         3.518960         1.983615        -2.138726
 H         1.977721         3.006547        -2.141838
 H         2.505778         1.631600         0.334996
