19
Iteration:  4890charge 0 multiplicity 1
 C         0.373284        -0.260172         0.405682
 C         1.099888         0.249438        -0.803515
 C         0.501721         0.270717        -2.190552
 C         1.546701         0.998469        -2.952731
 C         1.582825         1.418811        -4.395755
 O         2.371113         0.340254        -3.969794
 C         2.396527         1.861178        -1.959693
 C         2.245797         1.272775        -0.642330
 O         2.492307        -0.200707        -0.607109
 H         1.034480        -0.345962         1.239199
 H        -0.487215         0.348499         0.715119
 H        -0.048042        -1.267343         0.124374
 H         0.318420        -0.750662        -2.518381
 H        -0.545429         0.666672        -1.906465
 H         0.817699         1.037151        -5.117161
 H         2.160242         2.351599        -4.597124
 H         3.471027         1.896777        -2.290261
 H         1.957298         2.804042        -1.904896
 H         2.396386         1.612019         0.332589
