19
Iteration:  4147charge 0 multiplicity 1
 C         0.106115        -0.033061         0.314803
 C         1.162491         0.097035        -0.702722
 C         0.816143        -0.038353        -2.183280
 C         1.662920         0.953238        -3.010093
 C         1.234114         1.485227        -4.349791
 O         2.359305         0.599974        -4.213261
 C         2.571178         1.689882        -2.007687
 C         2.169997         1.252234        -0.595411
 O         2.569974        -0.190125        -0.318504
 H        -0.071226        -0.977023         0.863609
 H         0.471108         0.677937         1.133488
 H        -0.733421         0.392754        -0.132486
 H         0.798947        -1.074903        -2.492990
 H        -0.268432         0.155794        -2.232651
 H         0.338137         1.029655        -4.908086
 H         1.452267         2.525372        -4.723455
 H         3.651045         1.501727        -2.354607
 H         2.506001         2.784867        -2.062652
 H         2.168475         1.872181         0.214198
