19
Iteration:   317
 C        -0.179982         0.410738        -0.084821
 C         1.167771         0.231512        -0.872122
 C         1.217608        -0.438726        -2.262889
 C         1.798008         0.687751        -2.981201
 C         1.024225         1.779469        -3.557978
 O         1.942215         0.933929        -4.352786
 C         3.016342         1.204640        -2.158057
 C         2.294540         1.067829        -0.791416
 O         2.444870        -0.169006        -0.047560
 H        -0.628721        -0.508550         0.388910
 H        -0.163585         1.408496         0.605438
 H        -0.846814         0.709738        -0.797132
 H         1.881847        -1.299691        -2.176345
 H         0.234358        -0.711083        -2.753177
 H         0.002053         1.678643        -3.887307
 H         1.310003         2.753155        -3.263610
 H         3.911736         0.549490        -2.115256
 H         3.522689         2.155191        -2.488808
 H         2.360767         2.033796        -0.217421
