19
Iteration:  3308charge 0 multiplicity 1
 C         0.285474        -0.338983         0.300599
 C         1.114187         0.192952        -0.753706
 C         0.577530         0.339469        -2.213595
 C         1.720945         1.082936        -2.928229
 C         1.500466         1.290562        -4.401425
 O         2.241754         0.198391        -3.910473
 C         2.424694         1.978615        -1.951376
 C         2.232666         1.233066        -0.583574
 O         2.571821        -0.113747        -0.646281
 H         0.570854        -1.232088         0.696408
 H         0.463465         0.333741         1.142362
 H        -0.846689         0.071662         0.125414
 H         0.276491        -0.573922        -2.743780
 H        -0.310931         0.872743        -2.078254
 H         0.582654         0.970516        -4.897611
 H         2.051404         2.106107        -4.897839
 H         3.485677         2.113553        -2.188186
 H         1.904673         3.039593        -1.822926
 H         2.387003         1.910830         0.331170
