19
Iteration:  3875
 C         0.205713        -0.379953         0.393122
 C         1.136865         0.255969        -0.706871
 C         0.548563         0.335740        -2.048962
 C         1.448407         1.188213        -3.005396
 C         1.690809         1.250144        -4.487006
 O         2.306896         0.263535        -3.811963
 C         2.385764         1.936788        -2.005868
 C         2.281640         1.291986        -0.643008
 O         2.593188        -0.141618        -0.741976
 H        -0.082503        -1.308291        -0.231112
 H         0.796490        -0.819842         1.344235
 H        -0.601478         0.219657         0.750314
 H         0.402443        -0.775423        -2.411361
 H        -0.412297         0.910357        -1.989159
 H         0.865570         0.851183        -5.139237
 H         2.229888         2.102632        -4.991030
 H         3.442675         1.976219        -2.335236
 H         1.902925         2.958830        -1.996262
 H         2.532839         1.710945         0.295390
