19
Iteration:  4571
 C         0.085319        -0.183077         0.296825
 C         1.191045         0.217717        -0.752955
 C         0.890539        -0.029891        -2.196931
 C         1.660776         1.026429        -2.952282
 C         1.223214         1.468751        -4.267517
 O         2.291151         0.447327        -4.190428
 C         2.568912         1.786832        -1.980042
 C         2.192956         1.290178        -0.590077
 O         2.513284        -0.065133        -0.413057
 H        -0.283088        -1.264832         0.169196
 H         0.536575        -0.239582         1.302116
 H        -0.680040         0.546961         0.272036
 H         1.202276        -1.053462        -2.445009
 H        -0.167445        -0.114625        -2.403345
 H         0.346053         0.924805        -4.658891
 H         1.644278         2.378613        -4.757755
 H         3.652974         1.352216        -2.097024
 H         2.810932         2.810343        -2.311307
 H         2.161944         1.952394         0.285996
