19
Iteration:  4893charge 0 multiplicity 1
 C         0.358361        -0.261991         0.399524
 C         1.093838         0.249859        -0.804171
 C         0.523372         0.263731        -2.188556
 C         1.565176         1.016371        -2.988409
 C         1.543608         1.416832        -4.387354
 O         2.378808         0.335278        -3.961848
 C         2.420517         1.854570        -1.952028
 C         2.232916         1.286640        -0.646837
 O         2.488311        -0.214458        -0.616166
 H         1.052711        -0.312157         1.194734
 H        -0.509761         0.355119         0.801350
 H        -0.142046        -1.219009         0.160020
 H         0.396615        -0.783392        -2.536313
 H        -0.490952         0.623370        -1.844687
 H         0.815495         1.008121        -5.069391
 H         2.124418         2.326589        -4.597834
 H         3.468250         1.938319        -2.239363
 H         1.909176         2.874535        -1.852986
 H         2.498943         1.662224         0.423907
