19
Iteration:  2277
 C         0.210728        -0.113797         0.452405
 C         1.123750         0.260297        -0.742030
 C         0.754914         0.101139        -2.146654
 C         1.635303         0.967271        -3.003170
 C         1.443440         1.362713        -4.441190
 O         2.410008         0.385270        -3.972952
 C         2.400555         1.923843        -1.923026
 C         2.196168         1.211296        -0.619685
 O         2.466516        -0.195925        -0.672826
 H        -0.493693         0.818698         0.720013
 H        -0.382210        -1.111294         0.289874
 H         0.816639        -0.122239         1.287868
 H         0.849132        -0.973393        -2.510088
 H        -0.320456         0.382179        -2.285339
 H         0.593590         0.985727        -5.033612
 H         1.938005         2.247354        -4.842477
 H         3.425056         2.123036        -2.355594
 H         1.793135         2.821693        -1.855140
 H         2.431808         1.563757         0.377947
