19
Iteration:  1263charge 0 multiplicity 1
 C         0.161767         0.068389         0.503305
 C         1.168598         0.190965        -0.698689
 C         0.697317         0.012070        -2.265296
 C         1.654058         1.016440        -3.031507
 C         1.244260         1.455864        -4.385012
 O         2.431751         0.515765        -4.148140
 C         2.596491         1.717847        -2.002142
 C         2.238007         1.166567        -0.687274
 O         2.436662        -0.286964        -0.374908
 H         0.827196        -0.001617         1.340439
 H        -0.407134         0.982988         0.693867
 H        -0.410503        -0.969365         0.413933
 H         0.902554        -0.974601        -2.763862
 H        -0.370898         0.337333        -2.472896
 H         0.433865         1.067852        -5.030415
 H         1.540145         2.457614        -4.619550
 H         3.679264         1.606944        -2.334458
 H         2.188379         2.773909        -1.813294
 H         2.448831         1.836512         0.138715
