19
Iteration:  1529charge 0 multiplicity 1
 C         0.014078         0.148452         0.282315
 C         1.153646         0.181183        -0.831114
 C         1.002401        -0.271850        -2.280231
 C         1.853209         0.814755        -2.989559
 C         1.183258         1.656210        -3.902605
 O         2.072293         0.640144        -4.413215
 C         2.905291         1.501498        -2.064196
 C         2.181980         1.264170        -0.730345
 O         2.371214        -0.119313        -0.180884
 H         0.197279         0.875940         1.026193
 H        -1.029716         0.238643        -0.013799
 H         0.117425        -0.873422         0.933178
 H         1.596842        -1.220108        -2.351742
 H         0.032014        -0.343334        -2.792092
 H         0.115209         1.462805        -4.118366
 H         1.459803         2.695728        -3.947479
 H         3.901903         1.044032        -2.308487
 H         2.882861         2.571800        -2.414471
 H         1.947144         2.006637         0.061058
