19
Iteration:  2078charge 0 multiplicity 1
 C         0.023175        -0.068006         0.283743
 C         1.177866         0.172271        -0.706643
 C         0.896306        -0.159995        -2.124581
 C         1.715080         0.887938        -2.975439
 C         1.263392         1.505817        -4.273995
 O         2.291344         0.499804        -4.249120
 C         2.612012         1.758206        -2.004451
 C         2.171192         1.308619        -0.652377
 O         2.529289        -0.060346        -0.341988
 H        -0.657884         0.879387         0.485628
 H        -0.604533        -0.775856        -0.147602
 H         0.405934        -0.563842         1.211651
 H         1.149256        -1.215026        -2.242833
 H        -0.177183         0.204185        -2.364749
 H         0.300308         1.110324        -4.591721
 H         1.489797         2.492167        -4.648402
 H         3.587765         1.322255        -2.343416
 H         2.626630         2.863704        -2.188250
 H         2.296018         2.117194         0.117514
