19
Iteration:  3661charge 0 multiplicity 1
 C         0.154768        -0.066747         0.339323
 C         1.127882         0.181928        -0.796472
 C         0.766180         0.011319        -2.219840
 C         1.791117         0.904358        -2.964428
 C         1.405885         1.495043        -4.275413
 O         2.209762         0.386076        -4.208614
 C         2.542621         1.806804        -1.956243
 C         2.099755         1.295560        -0.599713
 O         2.569590        -0.142779        -0.428509
 H        -0.171192        -1.073481         0.350857
 H         0.677566        -0.019956         1.395925
 H        -0.860647         0.633686         0.387542
 H         1.034288        -1.007073        -2.558340
 H        -0.311238         0.230787        -2.385581
 H         0.441953         1.324126        -4.736107
 H         1.914285         2.430275        -4.552941
 H         3.604081         1.621411        -1.823627
 H         2.300680         2.836709        -2.136248
 H         2.093819         1.909514         0.303677
