19
Iteration:  1950charge 0 multiplicity 1
 C         0.112656        -0.027623         0.474779
 C         1.170437         0.196583        -0.709988
 C         0.631373         0.135822        -2.166383
 C         1.655894         1.001874        -2.959507
 C         1.387904         1.344714        -4.466108
 O         2.446594         0.473920        -4.104727
 C         2.425884         1.839485        -1.929220
 C         2.279299         1.165796        -0.606196
 O         2.575787        -0.258803        -0.615935
 H        -0.731954        -0.747691         0.132516
 H         0.474678        -0.349127         1.578615
 H        -0.333437         0.875671         0.728707
 H         0.569954        -0.821925        -2.755577
 H        -0.386650         0.530026        -2.173190
 H         0.551496         0.724452        -4.905080
 H         1.613164         2.304374        -5.027588
 H         3.502465         2.044648        -1.965486
 H         1.866576         2.752571        -1.720685
 H         2.417903         1.682057         0.366269
