19
Iteration:  1297
 C         0.023100         0.022161         0.232870
 C         1.208167         0.217567        -0.622228
 C         0.804859         0.044619        -2.174719
 C         1.713176         0.969930        -3.002693
 C         1.195624         1.491943        -4.294706
 O         2.233473         0.441494        -4.231104
 C         2.673453         1.672378        -1.942848
 C         2.294012         1.269663        -0.601973
 O         2.556556        -0.234194        -0.403038
 H         0.191590        -0.000560         1.244324
 H        -0.792718         0.732306        -0.029070
 H        -0.487931        -1.063229         0.030920
 H         0.988823        -0.999586        -2.549707
 H        -0.317270         0.219013        -2.147888
 H         0.277042         1.124981        -4.753290
 H         1.567798         2.440161        -4.615723
 H         3.776338         1.568317        -2.142450
 H         2.639447         2.853631        -1.928861
 H         2.422832         1.867422         0.297292
