19
Iteration:  2308
 C         0.277529        -0.099114         0.498884
 C         1.092607         0.145744        -0.761170
 C         0.598866         0.188346        -2.173223
 C         1.613080         1.009246        -2.967058
 C         1.502460         1.268073        -4.365835
 O         2.566183         0.368334        -3.912302
 C         2.292658         1.979312        -1.929053
 C         2.176377         1.173583        -0.724005
 O         2.496098        -0.184286        -0.775782
 H        -0.116172         0.960093         0.750724
 H        -0.528750        -0.764270         0.501096
 H         0.915372        -0.383477         1.288989
 H         0.309630        -0.731514        -2.663896
 H        -0.366112         0.717069        -2.023059
 H         0.689099         0.802746        -4.897584
 H         1.951946         2.163681        -4.778850
 H         3.263880         2.321471        -2.312933
 H         1.681691         2.847802        -1.729794
 H         2.419476         1.452854         0.307770
