19
Iteration:   758
 C        -0.105478         0.185876         0.139287
 C         1.141197         0.216094        -0.810404
 C         1.045746        -0.172845        -2.270688
 C         1.848496         0.942560        -2.959319
 C         1.082842         1.554681        -3.928996
 O         2.118257         0.655651        -4.374224
 C         2.858124         1.466665        -2.036551
 C         2.292749         1.167787        -0.671395
 O         2.449955        -0.171075        -0.182236
 H        -0.221002         1.182715         0.674514
 H        -0.992994        -0.105247        -0.227318
 H         0.263116        -0.580745         0.827020
 H         1.280847        -1.255766        -2.397911
 H         0.007126        -0.164175        -2.645190
 H         0.030484         1.372869        -3.983492
 H         1.441606         2.520259        -4.053117
 H         3.723253         0.758772        -2.331985
 H         2.982711         2.514791        -2.158270
 H         2.277452         1.999539         0.038399
