19
Iteration:  4565charge 0 multiplicity 1
 C         0.104578        -0.194201         0.234883
 C         1.171264         0.242565        -0.743846
 C         0.884516        -0.025993        -2.188833
 C         1.676763         1.004966        -2.987495
 C         1.204329         1.443118        -4.275517
 O         2.270453         0.445625        -4.110837
 C         2.573382         1.781758        -2.021564
 C         2.179557         1.304140        -0.568433
 O         2.553173        -0.101946        -0.391258
 H        -0.356015        -1.122280        -0.069933
 H         0.607375        -0.246143         1.195543
 H        -0.671431         0.681108         0.255129
 H         1.482503        -0.961708        -2.363831
 H        -0.188108         0.018625        -2.511556
 H         0.238792         1.213099        -4.759538
 H         1.600166         2.352036        -4.698134
 H         3.515297         1.348616        -2.124424
 H         2.596309         2.879995        -2.159543
 H         2.313880         1.986152         0.267757
