19
Iteration:  4508
 C         0.184802        -0.038372         0.397294
 C         1.125539         0.152914        -0.704754
 C         0.810420        -0.028644        -2.166403
 C         1.760797         0.902393        -2.953457
 C         1.259831         1.438486        -4.349172
 O         2.408370         0.536047        -4.233584
 C         2.438448         1.786048        -1.971039
 C         2.149454         1.254326        -0.643375
 O         2.551471        -0.148590        -0.463016
 H        -0.536942        -0.962049         0.258880
 H         0.719595        -0.254742         1.329446
 H        -0.567343         0.768187         0.712575
 H         0.882512        -1.090234        -2.564937
 H        -0.311006         0.197641        -2.354482
 H         0.389064         0.881138        -4.778367
 H         1.680855         2.421360        -4.710703
 H         3.571408         1.886564        -2.033862
 H         2.035591         2.793661        -1.820270
 H         1.888576         1.876000         0.175285
