19
Iteration:   720
 C        -0.023588         0.171285         0.281019
 C         1.148606         0.231989        -0.706940
 C         0.903545        -0.146081        -2.170747
 C         1.673427         0.971585        -2.931046
 C         1.247721         1.621842        -4.192809
 O         2.239448         0.575695        -4.322718
 C         2.669184         1.580825        -2.033167
 C         2.312905         1.128520        -0.626223
 O         2.495854        -0.309825        -0.364057
 H        -0.324496         1.203336         0.494845
 H        -0.984659        -0.472545         0.008067
 H         0.301000        -0.152649         1.303192
 H         1.383555        -1.096898        -2.382622
 H        -0.157997        -0.092055        -2.404288
 H         0.259245         1.405508        -4.691907
 H         1.598329         2.692217        -4.450272
 H         3.672595         1.335540        -2.262396
 H         2.754628         2.691756        -1.902480
 H         2.401195         1.827329         0.214468
