19
Iteration:  3024charge 0 multiplicity 1
 C         0.240417        -0.160574         0.534922
 C         1.090230         0.240589        -0.706994
 C         0.564984         0.160454        -2.157630
 C         1.606649         1.010349        -2.982913
 C         1.523349         1.488697        -4.374309
 O         2.399213         0.372899        -3.998862
 C         2.434887         1.816856        -2.029999
 C         2.256360         1.210593        -0.678559
 O         2.506992        -0.262984        -0.668027
 H         0.780836        -0.629323         1.287703
 H        -0.116850         0.757068         0.950637
 H        -0.764865        -0.599389         0.189827
 H         0.426111        -0.864366        -2.656740
 H        -0.490641         0.588065        -2.244780
 H         0.634313         1.253781        -4.986149
 H         2.111642         2.376601        -4.663550
 H         3.467640         1.778134        -2.264604
 H         2.104513         2.836669        -2.099067
 H         2.598916         1.853227         0.283195
