19
Iteration:  1964
 C         0.070242         0.024654         0.410347
 C         1.179293         0.089952        -0.703508
 C         0.752938         0.107553        -2.151305
 C         1.651645         1.056119        -2.989278
 C         1.345893         1.316897        -4.362028
 O         2.445532         0.440616        -4.189736
 C         2.426026         1.916331        -1.899872
 C         2.187630         1.145587        -0.574438
 O         2.593110        -0.256157        -0.583583
 H        -0.806825        -0.440915         0.091976
 H         0.562079        -0.695882         1.188745
 H        -0.190370         1.130642         0.738331
 H         0.554717        -0.988652        -2.354268
 H        -0.211900         0.608188        -2.157488
 H         0.396319         0.977218        -4.770094
 H         1.624920         2.327053        -4.780192
 H         3.385084         1.953671        -2.373355
 H         2.138773         2.954194        -1.936299
 H         2.426462         1.650894         0.344256
