19
Iteration:   928
 C        -0.022273         0.181636         0.225923
 C         1.185944         0.131943        -0.713183
 C         0.941151        -0.168450        -2.236172
 C         1.781494         0.900713        -2.946394
 C         1.155413         1.599083        -4.031783
 O         2.185060         0.693053        -4.405620
 C         2.790887         1.393498        -2.055425
 C         2.237223         1.198812        -0.692174
 O         2.463668        -0.124632        -0.178084
 H         0.078960         0.852631         1.024909
 H        -0.961262         0.422790        -0.409795
 H        -0.231667        -0.824616         0.561250
 H         1.467343        -1.095460        -2.536494
 H        -0.132153        -0.295954        -2.474904
 H         0.128139         1.162988        -4.317665
 H         1.319696         2.689666        -4.246392
 H         3.773254         0.902733        -2.168539
 H         2.772398         2.524566        -2.305412
 H         2.418002         2.045388        -0.010704
