19
Iteration:   815
 C        -0.093128         0.140906         0.025152
 C         1.176177         0.158539        -0.760698
 C         1.135445        -0.364330        -2.208124
 C         1.823448         0.750560        -3.021047
 C         1.076539         1.803420        -3.847478
 O         1.998314         0.749372        -4.388876
 C         2.931953         1.203427        -2.127587
 C         2.227772         1.287020        -0.773903
 O         2.444696         0.024399         0.019027
 H         0.110178         0.436714         0.994660
 H        -0.753417         0.787618        -0.426746
 H        -0.696226        -0.835959         0.060021
 H         1.940569        -1.106293        -2.060519
 H         0.182780        -0.813265        -2.569163
 H         0.039959         1.771597        -4.103524
 H         1.489537         2.802832        -3.930467
 H         3.879517         0.633134        -2.379995
 H         3.117379         2.258237        -2.422037
 H         2.104945         2.261202        -0.289037
