19
Iteration:  2878
 C         0.369147        -0.166903         0.447654
 C         1.117154         0.171377        -0.772197
 C         0.405929         0.323895        -2.198628
 C         1.589980         1.102461        -2.973630
 C         1.679435         1.386680        -4.394962
 O         2.286550         0.247115        -3.907356
 C         2.421927         1.929259        -1.886462
 C         2.226069         1.152797        -0.647445
 O         2.531738        -0.226396        -0.753046
 H         0.478802         0.597935         1.324904
 H        -0.693733        -0.407075         0.218012
 H         0.772879        -1.045835         0.737528
 H        -0.168665        -0.423458        -2.752620
 H        -0.455936         0.962708        -1.759670
 H         0.859872         1.163762        -5.082053
 H         2.380591         2.142720        -4.744541
 H         3.470341         1.738370        -2.178719
 H         2.040678         2.846797        -1.987767
 H         2.356926         1.610278         0.278146
