19
Iteration:  4439
 C         0.231054        -0.255968         0.386628
 C         1.200181         0.205041        -0.730483
 C         0.633319         0.272363        -2.222023
 C         1.662465         0.961193        -2.974503
 C         1.466700         1.358978        -4.366494
 O         2.345688         0.260145        -4.074039
 C         2.329534         1.951298        -1.935390
 C         2.235052         1.312695        -0.604017
 O         2.584576        -0.152744        -0.574270
 H         0.463712        -1.331264         0.600369
 H         0.178283         0.302502         1.404955
 H        -0.732416        -0.350619         0.000092
 H         0.448291        -0.719762        -2.479691
 H        -0.299263         0.779867        -2.212481
 H         0.511038         1.188978        -4.734932
 H         2.018288         2.187914        -4.578836
 H         3.332356         2.248709        -2.332201
 H         1.616176         2.781643        -1.903100
 H         2.339563         1.842019         0.342701
