19
Iteration:  2742
 C         0.166066        -0.131019         0.464483
 C         1.077650         0.238914        -0.639969
 C         0.792961         0.007143        -2.163031
 C         1.723409         0.904832        -2.943541
 C         1.365477         1.565442        -4.267928
 O         2.260657         0.451849        -4.266725
 C         2.723925         1.717725        -2.046329
 C         2.128746         1.263499        -0.727272
 O         2.428294        -0.154488        -0.482843
 H         0.601278        -0.810140         1.136429
 H        -0.106317         0.674044         1.134910
 H        -0.904809        -0.512288         0.046818
 H         1.106835        -1.069849        -2.184982
 H        -0.334184         0.156031        -2.511240
 H         0.398358         1.515449        -4.780844
 H         1.770454         2.592996        -4.404776
 H         3.802912         1.576408        -2.201244
 H         2.595830         2.773718        -2.252628
 H         2.155452         1.867004         0.269722
