19
Iteration:  2905
 C         0.255928        -0.326402         0.400169
 C         1.124529         0.285533        -0.705738
 C         0.501895         0.487355        -2.152434
 C         1.692533         1.110288        -2.924342
 C         1.603463         1.354658        -4.350387
 O         2.280992         0.133643        -3.792326
 C         2.401675         1.973861        -1.950241
 C         2.285271         1.208268        -0.676588
 O         2.502074        -0.235868        -0.883149
 H         0.215542         0.315914         1.215317
 H        -0.730985        -0.595899         0.042723
 H         0.749996        -1.397110         0.671673
 H         0.146120        -0.458842        -2.611886
 H        -0.410226         0.989249        -1.952799
 H         0.650689         1.171769        -4.871911
 H         2.309456         2.012891        -4.896639
 H         3.454820         2.046174        -2.275353
 H         1.915328         3.044736        -2.135626
 H         2.636961         1.697201         0.319230
