19
Iteration:   814charge 0 multiplicity 1
 C        -0.092118         0.135396         0.024098
 C         1.171967         0.162663        -0.756739
 C         1.136467        -0.360664        -2.209604
 C         1.822755         0.756944        -3.017502
 C         1.085884         1.805458        -3.845785
 O         1.995415         0.749523        -4.395001
 C         2.924429         1.202273        -2.134867
 C         2.227709         1.283510        -0.770324
 O         2.445240         0.024342         0.019068
 H         0.146684         0.489164         1.032576
 H        -0.745307         0.758251        -0.441688
 H        -0.694770        -0.830125         0.064724
 H         1.952966        -1.091544        -2.044758
 H         0.193104        -0.828659        -2.569786
 H         0.064975         1.746510        -4.128845
 H         1.495601         2.780110        -3.923198
 H         3.885098         0.604718        -2.362133
 H         3.071339         2.240907        -2.409858
 H         2.096168         2.253052        -0.282572
