19
Iteration:  4664
 C         0.076611        -0.142304         0.278878
 C         1.194387         0.197331        -0.747852
 C         0.798938         0.067128        -2.159814
 C         1.698634         1.029710        -2.912244
 C         1.304407         1.380616        -4.314313
 O         2.267746         0.403819        -4.161581
 C         2.525061         1.920497        -1.885917
 C         2.224130         1.191331        -0.593831
 O         2.577035        -0.171319        -0.521542
 H         0.344548        -0.799622         1.043682
 H        -0.212535         0.849734         0.725770
 H        -0.775200        -0.424238        -0.389845
 H         1.181508        -0.858348        -2.590815
 H        -0.244852         0.129362        -2.433719
 H         0.360587         0.972395        -4.608817
 H         1.603024         2.312193        -4.725566
 H         3.535959         1.910399        -2.167402
 H         2.208780         2.972320        -1.823319
 H         2.470144         1.802009         0.304605
