19
Iteration:  4026charge 0 multiplicity 1
 C         0.132004        -0.148786         0.416234
 C         1.100912         0.274258        -0.706239
 C         0.838274        -0.043434        -2.224588
 C         1.656819         0.972234        -2.980934
 C         1.320402         1.466860        -4.280968
 O         2.319599         0.447297        -4.202214
 C         2.565727         1.751360        -2.015500
 C         2.231570         1.282625        -0.663791
 O         2.477692        -0.111488        -0.388078
 H        -0.497331        -0.986693         0.034736
 H         0.772428        -0.483685         1.314969
 H        -0.550489         0.685313         0.517482
 H         0.918240        -1.190940        -2.507955
 H        -0.228866         0.089249        -2.558085
 H         0.381196         1.187216        -4.846455
 H         1.611657         2.566054        -4.434418
 H         3.639164         1.591994        -2.413646
 H         2.608250         2.846715        -1.972418
 H         2.291019         1.983954         0.165010
