19
Iteration:  3833
 C         0.329118        -0.268365         0.317436
 C         1.054932         0.283403        -0.779052
 C         0.552297         0.362297        -2.172734
 C         1.692271         1.058276        -2.919687
 C         1.508276         1.164137        -4.346822
 O         2.449310         0.251284        -3.821922
 C         2.333397         1.966161        -1.911893
 C         2.151891         1.222864        -0.586701
 O         2.554108        -0.154737        -0.879350
 H        -0.559124        -0.953611         0.202589
 H         1.168347        -0.634153         1.119359
 H         0.045260         0.550223         0.946653
 H         0.046471        -0.527752        -2.652551
 H        -0.419593         1.038355        -1.972131
 H         0.548300         0.821430        -4.770382
 H         1.946577         2.017091        -4.893001
 H         3.356106         2.323694        -2.145781
 H         1.800405         3.005296        -1.775436
 H         2.404153         1.662201         0.330253
