19
Iteration:  4357charge 0 multiplicity 1
 C         0.413910        -0.353054         0.438088
 C         1.074774         0.249284        -0.776604
 C         0.460818         0.404895        -2.167742
 C         1.617651         1.034798        -2.930904
 C         1.610744         1.270018        -4.342403
 O         2.473679         0.219110        -3.763323
 C         2.260595         2.044509        -1.976900
 C         2.218131         1.206885        -0.640991
 O         2.460484        -0.152369        -0.860401
 H         0.167358        -1.424449         0.259200
 H         1.097082        -0.320966         1.242351
 H        -0.490834         0.243889         0.796670
 H         0.210770        -0.639368        -2.649798
 H        -0.374724         1.148257        -2.174612
 H         0.794389         0.863349        -5.051343
 H         2.141954         2.041344        -5.040520
 H         3.215928         2.387584        -2.417469
 H         1.671169         2.988891        -2.124608
 H         2.592733         1.670378         0.294975
