19
Iteration:  1754
 C         0.252858        -0.126560         0.585898
 C         1.073774         0.233213        -0.678893
 C         0.577140         0.228688        -2.134054
 C         1.588485         1.014371        -3.001698
 C         1.574272         1.549627        -4.457338
 O         2.377230         0.341110        -3.989283
 C         2.471206         1.851930        -2.006080
 C         2.205542         1.126281        -0.690192
 O         2.478065        -0.313200        -0.716256
 H         0.415722         0.619700         1.434741
 H        -0.869157         0.149585         0.417459
 H         0.417992        -1.103533         0.887222
 H         0.607337        -0.882493        -2.371412
 H        -0.508199         0.441823        -2.229472
 H         0.685277         1.447117        -5.140343
 H         2.278556         2.310030        -4.797417
 H         3.534419         1.838229        -2.221678
 H         2.148153         2.936798        -1.967811
 H         2.535039         1.577139         0.242305
