19
Iteration:   526
 C         0.309947        -0.190208         0.447391
 C         1.042508         0.256774        -0.754994
 C         0.451742         0.579701        -2.108299
 C         1.685795         1.102080        -2.934323
 C         1.606647         1.392390        -4.410149
 O         2.316765         0.283503        -3.837532
 C         2.510133         1.882049        -1.923462
 C         2.331013         1.015067        -0.666740
 O         2.403534        -0.407642        -0.890915
 H         0.114585        -1.319133         0.604062
 H         0.752930         0.357002         1.339136
 H        -0.670223         0.172219         0.281274
 H        -0.076343        -0.300264        -2.520823
 H        -0.246741         1.463758        -2.051501
 H         0.667198         1.122153        -4.826426
 H         2.122567         2.139036        -5.016169
 H         3.609862         1.849002        -2.171084
 H         2.207080         2.940938        -1.743689
 H         2.589288         1.413065         0.343714
