19
Iteration:  3182
 C         0.051694        -0.094867         0.312709
 C         1.220626         0.233319        -0.666875
 C         0.781653         0.006513        -2.138738
 C         1.624889         0.946645        -2.950576
 C         1.268920         1.428525        -4.305898
 O         2.362547         0.471485        -4.120405
 C         2.596786         1.808070        -2.011946
 C         2.273409         1.274444        -0.664479
 O         2.503482        -0.175480        -0.483745
 H        -0.611730        -0.875555        -0.293270
 H         0.444348        -0.498616         1.334275
 H        -0.568816         0.712726         0.374280
 H         0.926200        -1.076345        -2.260536
 H        -0.231955         0.449877        -2.252699
 H         0.367165         0.982163        -4.711624
 H         1.504538         2.421812        -4.730418
 H         3.594864         1.667275        -2.469366
 H         2.143243         2.743726        -1.989344
 H         2.616772         1.827521         0.160614
