19
Iteration:  1719charge 0 multiplicity 1
 C         0.185308        -0.094110         0.291511
 C         1.130128         0.296072        -0.734649
 C         0.677457         0.162666        -2.151843
 C         1.759404         0.930197        -3.004959
 C         1.271614         1.519284        -4.245087
 O         2.294672         0.365241        -4.105675
 C         2.665366         1.775061        -1.949702
 C         2.221513         1.217803        -0.637024
 O         2.461780        -0.263937        -0.529499
 H         0.504229         0.474737         1.261219
 H        -0.817865         0.117962        -0.045011
 H         0.197687        -1.074531         0.520983
 H         0.662223        -0.833001        -2.546404
 H        -0.319291         0.599751        -2.150694
 H         0.299061         1.287418        -4.674035
 H         1.803203         2.411296        -4.624826
 H         3.703348         1.506145        -2.083258
 H         2.450300         2.753409        -2.233876
 H         2.335139         1.767221         0.301178
