19
Iteration:  2584
 C         0.103405        -0.187009         0.389637
 C         1.121536         0.264657        -0.662045
 C         0.813511        -0.029004        -2.186634
 C         1.693303         0.908263        -2.990411
 C         1.309650         1.468956        -4.352277
 O         2.251780         0.491595        -4.224690
 C         2.647002         1.699142        -2.048020
 C         2.190489         1.273771        -0.674880
 O         2.499253        -0.049995        -0.261769
 H        -0.783320         0.461590         0.010288
 H         0.129099        -1.315549         0.171499
 H         0.411210         0.154466         1.290064
 H         1.222565        -1.068279        -2.469431
 H        -0.236706         0.098758        -2.264742
 H         0.359351         1.233511        -4.907389
 H         1.777595         2.474439        -4.599423
 H         3.682975         1.584993        -2.434614
 H         2.384206         2.751768        -2.346046
 H         2.337098         2.097162         0.021153
