19
Iteration:  4783charge 0 multiplicity 1
 C         0.184226        -0.278575         0.436506
 C         1.180650         0.239430        -0.659868
 C         0.556537         0.439381        -2.085706
 C         1.587866         1.075267        -2.928602
 C         1.522945         1.290971        -4.463508
 O         2.445400         0.366912        -3.902817
 C         2.334857         1.871468        -1.956141
 C         2.227207         1.119731        -0.597684
 O         2.577905        -0.239498        -0.858922
 H         0.208323         0.419171         1.225250
 H        -0.872674        -0.304749         0.027416
 H         0.608544        -1.282503         0.819181
 H         0.362733        -0.528403        -2.569871
 H        -0.416030         0.972661        -2.009503
 H         0.713264         0.925426        -5.104549
 H         1.982885         2.218600        -4.873297
 H         3.341759         2.093556        -2.395241
 H         1.874351         2.935398        -1.787265
 H         2.550456         1.734260         0.295975
