19
Iteration:   514charge 0 multiplicity 1
 C         0.185255        -0.079069         0.419108
 C         1.099239         0.228408        -0.766120
 C         0.431142         0.517936        -2.114976
 C         1.657471         1.123091        -2.920532
 C         1.542536         1.424724        -4.352344
 O         2.322818         0.245204        -4.004632
 C         2.592858         1.802763        -1.856660
 C         2.286764         1.015109        -0.646958
 O         2.514691        -0.374500        -0.828412
 H         0.440313        -1.197898         0.542754
 H         0.482418         0.312726         1.505832
 H        -0.803919         0.114569         0.315118
 H        -0.058874        -0.287561        -2.681834
 H        -0.357049         1.331653        -1.935768
 H         0.600578         1.220652        -4.859659
 H         2.165484         2.273015        -4.708207
 H         3.625067         1.919875        -2.215887
 H         2.150914         2.864783        -1.712253
 H         2.663030         1.426080         0.312999
