19
Iteration:  2956
 C         0.266642        -0.314167         0.368281
 C         1.124518         0.197608        -0.738855
 C         0.500809         0.494658        -2.184700
 C         1.635792         1.178005        -2.900604
 C         1.476684         1.162909        -4.390923
 O         2.383863         0.292350        -3.776389
 C         2.516950         1.974694        -1.960217
 C         2.220067         1.182887        -0.689254
 O         2.510964        -0.239463        -0.811866
 H         0.466898         0.232174         1.290187
 H        -0.799209        -0.221043         0.095436
 H         0.460186        -1.375243         0.443592
 H        -0.102814        -0.362479        -2.559658
 H        -0.256730         1.309026        -1.901832
 H         0.576298         0.778219        -4.868331
 H         1.934301         2.010091        -4.934388
 H         3.500225         2.002800        -2.410577
 H         2.291279         2.966756        -1.721766
 H         2.568818         1.609041         0.316633
