19
Iteration:  3864charge 0 multiplicity 1
 C         0.218344        -0.450098         0.324492
 C         1.169431         0.308430        -0.658920
 C         0.516005         0.342787        -2.094745
 C         1.526525         1.101730        -2.971604
 C         1.602382         1.259329        -4.503453
 O         2.349503         0.228188        -3.763073
 C         2.377007         2.078269        -2.028981
 C         2.282718         1.246960        -0.659622
 O         2.559642        -0.151426        -0.725182
 H        -0.587211        -1.232271         0.062687
 H         0.899052        -0.806234         1.238827
 H        -0.387802         0.351640         0.696706
 H         0.231491        -0.710592        -2.559681
 H        -0.478786         0.833874        -1.874792
 H         0.792022         0.958251        -5.214858
 H         2.307713         2.065931        -4.831131
 H         3.419891         2.120339        -2.421340
 H         2.011285         3.147861        -1.928509
 H         2.788809         1.712710         0.144708
