19
Iteration:  2843
 C         0.242032        -0.130345         0.493064
 C         1.120484         0.292697        -0.708311
 C         0.602540         0.194415        -2.145173
 C         1.684168         1.033371        -2.924496
 C         1.478802         1.400236        -4.402674
 O         2.390671         0.395451        -4.010843
 C         2.446106         1.853955        -2.003811
 C         2.304020         1.162525        -0.651578
 O         2.366108        -0.291714        -0.721532
 H         0.372491         0.347535         1.551762
 H        -0.836945        -0.059542         0.320176
 H         0.485770        -1.146003         0.714977
 H         0.582607        -0.817341        -2.567051
 H        -0.367111         0.845830        -2.103292
 H         0.658740         1.074869        -5.069416
 H         1.913662         2.378639        -4.644904
 H         3.484983         1.968555        -2.463475
 H         2.179410         2.862559        -1.779015
 H         2.728123         1.518095         0.250575
