19
Iteration:  2845
 C         0.253363        -0.143426         0.498140
 C         1.115071         0.278454        -0.697806
 C         0.611920         0.218482        -2.152889
 C         1.666229         1.041390        -2.937327
 C         1.494680         1.401338        -4.401619
 O         2.381540         0.395379        -4.000349
 C         2.452710         1.845750        -2.001944
 C         2.303150         1.150995        -0.664692
 O         2.365252        -0.283393        -0.717677
 H         0.388940         0.373810         1.569659
 H        -0.850056        -0.076874         0.322559
 H         0.513379        -1.085010         0.751300
 H         0.564808        -0.783493        -2.614481
 H        -0.388402         0.840873        -2.071482
 H         0.728866         1.034589        -5.102451
 H         1.945091         2.369571        -4.605949
 H         3.481074         1.921936        -2.431994
 H         2.059324         2.881203        -1.867194
 H         2.691174         1.530947         0.213216
