19
Iteration:  2009charge 0 multiplicity 1
 C         0.104672        -0.178047         0.370128
 C         1.113418         0.329592        -0.723071
 C         0.793015        -0.041429        -2.143259
 C         1.653868         0.940517        -3.009548
 C         1.361813         1.508299        -4.278005
 O         2.292165         0.429325        -4.194104
 C         2.559251         1.786923        -2.028771
 C         2.251860         1.243442        -0.635952
 O         2.482807        -0.112963        -0.436401
 H        -0.878896        -0.208528        -0.013934
 H         0.426039        -1.153700         0.728186
 H         0.103244         0.642752         1.234499
 H         1.250537        -0.988957        -2.434262
 H        -0.286629         0.023626        -2.305253
 H         0.518221         1.212180        -4.872382
 H         1.789498         2.466183        -4.510537
 H         3.585920         1.519998        -2.063632
 H         2.504334         2.855523        -2.181315
 H         2.380368         1.821482         0.269071
