19
Iteration:  4841charge 0 multiplicity 1
 C         0.340304        -0.345624         0.380758
 C         1.051831         0.231078        -0.721317
 C         0.534451         0.342852        -2.176563
 C         1.639653         1.124355        -2.940085
 C         1.548445         1.341205        -4.387807
 O         2.342169         0.208364        -3.871768
 C         2.416373         1.996274        -1.919023
 C         2.214487         1.245657        -0.603879
 O         2.529711        -0.200222        -0.835087
 H         0.443463         0.295701         1.352813
 H        -0.748009        -0.263007         0.083249
 H         0.633614        -1.355826         0.669827
 H         0.195273        -0.619499        -2.624321
 H        -0.403724         0.883953        -2.127925
 H         0.599657         1.168382        -4.881485
 H         2.217746         2.055992        -4.877315
 H         3.444971         2.110856        -2.191656
 H         1.958096         3.064413        -1.759462
 H         2.613783         1.613179         0.458665
