19
Iteration:  1041
 C         0.133533        -0.081811         0.455793
 C         1.109326         0.283259        -0.766575
 C         0.670048         0.140996        -2.133440
 C         1.736141         1.063107        -2.957714
 C         1.362994         1.380971        -4.388292
 O         2.388006         0.413567        -4.005573
 C         2.544865         1.846005        -1.945722
 C         2.324212         1.133129        -0.657657
 O         2.407041        -0.294809        -0.681784
 H         0.698820        -0.237372         1.514080
 H        -0.464469         0.783443         0.648836
 H        -0.503718        -0.856249         0.204237
 H         0.688423        -0.895781        -2.496654
 H        -0.338169         0.469068        -2.371770
 H         0.396593         0.981855        -4.775129
 H         1.822202         2.288622        -4.863323
 H         3.592260         2.146721        -2.266277
 H         2.098459         2.883558        -1.775198
 H         2.568539         1.661826         0.280214
