19
Iteration:  2698charge 0 multiplicity 1
 C         0.118632        -0.022319         0.315792
 C         1.161606         0.199296        -0.744613
 C         0.855601        -0.036753        -2.164760
 C         1.676535         0.966837        -2.974156
 C         1.259134         1.481650        -4.271892
 O         2.241620         0.542980        -4.227759
 C         2.653689         1.668120        -2.024448
 C         2.207636         1.230687        -0.652068
 O         2.519602        -0.206275        -0.313952
 H         0.014716        -1.001183         0.629477
 H         0.133299         0.608257         1.210656
 H        -0.972200         0.115548        -0.189472
 H         1.092541        -1.027813        -2.612629
 H        -0.263834         0.344340        -2.149719
 H         0.326031         1.165931        -4.758100
 H         1.581490         2.477284        -4.604542
 H         3.700171         1.528172        -2.269996
 H         2.618634         2.749753        -2.050917
 H         2.248762         2.120176         0.042540
