19
Iteration:  2871
 C         0.335256        -0.157443         0.489802
 C         1.117263         0.203778        -0.774373
 C         0.373229         0.315016        -2.184944
 C         1.628272         1.107785        -2.996527
 C         1.641492         1.436760        -4.427359
 O         2.343984         0.260147        -3.910991
 C         2.418105         1.893861        -1.963407
 C         2.202159         1.149140        -0.661199
 O         2.543728        -0.276139        -0.711981
 H         0.440618         0.452626         1.312078
 H        -0.739209        -0.284017         0.364840
 H         0.840585        -1.165260         0.980225
 H        -0.003322        -0.626924        -2.688295
 H        -0.450805         0.937909        -1.941855
 H         0.718742         1.230912        -4.982362
 H         2.375455         2.194808        -4.754043
 H         3.388943         1.696650        -2.399208
 H         2.055383         3.076390        -1.715388
 H         2.431876         1.668019         0.383397
