19
Iteration:  2359
 C         0.261606        -0.380747         0.435205
 C         1.083685         0.265865        -0.744817
 C         0.536434         0.338682        -2.141766
 C         1.614994         1.121666        -2.931153
 C         1.624409         1.197370        -4.405536
 O         2.350040         0.197410        -3.740391
 C         2.349903         2.066403        -1.989305
 C         2.269269         1.324300        -0.700243
 O         2.537037        -0.142332        -0.842445
 H        -0.635118         0.131080         0.561446
 H        -0.056847        -1.409917         0.223916
 H         0.852060        -0.450160         1.484357
 H         0.396895        -0.539312        -2.737736
 H        -0.451367         0.833798        -2.057632
 H         0.806378         0.846817        -5.044947
 H         2.281870         1.979168        -4.851895
 H         3.359834         2.293911        -2.305381
 H         1.732157         2.972685        -2.168671
 H         2.490261         1.577916         0.337527
