19
Iteration:   835
 C        -0.105365         0.211113        -0.036655
 C         1.183458         0.207164        -0.782037
 C         1.180974        -0.419306        -2.235892
 C         1.861878         0.798394        -2.940880
 C         1.045892         1.638965        -3.789840
 O         1.945156         0.758102        -4.422648
 C         2.982599         1.336948        -2.101514
 C         2.291797         1.264069        -0.739067
 O         2.413269         0.010884        -0.044296
 H         0.170692         0.166486         1.121505
 H        -0.743394         0.982242        -0.292327
 H        -0.783161        -0.668419        -0.380858
 H         1.578473        -1.459951        -2.428668
 H         0.094019        -0.318961        -2.447137
 H         0.077278         1.359411        -4.080138
 H         1.205345         2.684393        -3.832658
 H         3.728890         0.459266        -1.918030
 H         3.373731         2.290514        -2.321823
 H         2.113387         2.087985        -0.051684
