19
Iteration:  3409
 C         0.332229        -0.152088         0.583262
 C         1.127226         0.145261        -0.779994
 C         0.469079         0.325145        -2.194667
 C         1.586639         1.057521        -2.919956
 C         1.726358         1.319877        -4.407696
 O         2.407688         0.298381        -3.850228
 C         2.239050         1.947890        -1.972321
 C         2.163266         1.164369        -0.714461
 O         2.551492        -0.227045        -0.839951
 H        -0.456345        -0.855809         0.400331
 H         0.935932        -0.561122         1.478771
 H        -0.018329         0.883211         0.918081
 H         0.266186        -0.709763        -2.527957
 H        -0.492841         0.678661        -2.110422
 H         0.910120         1.038278        -5.097034
 H         2.296111         2.197773        -4.749914
 H         3.210658         2.250397        -2.416493
 H         1.731989         2.932092        -1.824027
 H         2.397484         1.620433         0.218161
