19
Iteration:  1187
 C         0.247606        -0.285542         0.385613
 C         1.195709         0.245364        -0.718342
 C         0.541896         0.445766        -2.164002
 C         1.534416         1.203640        -3.015659
 C         1.527447         1.225043        -4.451704
 O         2.333009         0.241822        -3.928238
 C         2.476532         1.943431        -1.998293
 C         2.260625         1.153360        -0.624150
 O         2.542752        -0.226701        -0.580695
 H         0.573656        -0.106621         1.326049
 H        -0.737666         0.185377         0.319009
 H         0.068381        -1.394185         0.101580
 H         0.072385        -0.427897        -2.669824
 H        -0.353876         0.983816        -1.781162
 H         0.686898         0.859948        -5.039212
 H         1.947062         2.124332        -4.829056
 H         3.522517         1.982641        -2.406789
 H         2.156399         3.018759        -1.762362
 H         2.496500         1.673590         0.307563
