19
Iteration:   728charge 0 multiplicity 1
 C        -0.013447         0.212366         0.233357
 C         1.146534         0.182329        -0.686412
 C         0.928706        -0.133080        -2.116006
 C         1.725308         0.941405        -2.948658
 C         1.218337         1.566441        -4.208831
 O         2.192664         0.650510        -4.310672
 C         2.735290         1.550499        -1.989088
 C         2.289013         1.104165        -0.639822
 O         2.457803        -0.246211        -0.382362
 H        -0.412449         1.135869         0.447205
 H        -0.839077        -0.336393        -0.310923
 H         0.345772        -0.358539         1.229987
 H         1.340515        -1.158447        -2.177707
 H        -0.134499        -0.241455        -2.417238
 H         0.186332         1.446495        -4.559865
 H         1.637079         2.589601        -4.298835
 H         3.787330         1.277230        -2.325782
 H         2.695466         2.660616        -2.070168
 H         2.476445         1.747924         0.217925
