19
Iteration:   286
 C        -0.064389         0.312593         0.031302
 C         1.203967         0.136665        -0.815854
 C         1.161732        -0.398414        -2.298469
 C         1.852859         0.704167        -2.995381
 C         1.106778         1.848938        -3.678637
 O         1.895015         0.934022        -4.432487
 C         3.076096         1.137222        -2.099400
 C         2.274792         1.231674        -0.815895
 O         2.296343        -0.150798        -0.028649
 H        -0.397664        -0.508705         0.742232
 H        -0.088367         1.292004         0.534268
 H        -0.897947         0.174598        -0.666015
 H         1.666335        -1.347482        -2.384470
 H         0.096299        -0.609389        -2.583664
 H         0.061670         1.761575        -3.899485
 H         1.429947         2.845521        -3.562212
 H         3.908632         0.388213        -1.867677
 H         3.521278         2.052266        -2.411410
 H         2.134044         2.076981        -0.072079
