19
Iteration:  2844
 C         0.247808        -0.137920         0.494958
 C         1.118661         0.286147        -0.703489
 C         0.607505         0.204794        -2.149030
 C         1.676730         1.037625        -2.929768
 C         1.486456         1.400628        -4.402557
 O         2.386021         0.395617        -4.005951
 C         2.448240         1.849763        -2.003226
 C         2.303795         1.157359        -0.656913
 O         2.364885        -0.287443        -0.719817
 H         0.379322         0.361116         1.571379
 H        -0.844937        -0.067573         0.322441
 H         0.496583        -1.102302         0.730891
 H         0.576829        -0.801503        -2.591338
 H        -0.383154         0.850835        -2.083954
 H         0.692891         1.054713        -5.087860
 H         1.927874         2.373613        -4.623822
 H         3.485983         1.947213        -2.452435
 H         2.124650         2.868553        -1.819575
 H         2.707315         1.518891         0.223689
