19
Iteration:  1205charge 0 multiplicity 1
 C         0.214604        -0.160118         0.367170
 C         1.131213         0.208193        -0.724079
 C         0.588697         0.239245        -2.122055
 C         1.636604         1.031168        -2.949852
 C         1.525059         1.430996        -4.448330
 O         2.283668         0.280459        -3.914598
 C         2.397559         1.873262        -1.985352
 C         2.316358         1.225218        -0.666009
 O         2.539148        -0.239267        -0.627312
 H         0.807102         0.033200         1.421793
 H        -0.683090         0.450500         0.410188
 H        -0.114983        -1.149779         0.382181
 H         0.474802        -0.733131        -2.614267
 H        -0.376569         0.716477        -2.261759
 H         0.603530         1.169688        -5.016281
 H         2.210309         2.222130        -4.901426
 H         3.434063         2.089669        -2.331674
 H         2.060352         2.911035        -1.956928
 H         2.548976         1.766340         0.265957
