19
Iteration:  3940charge 0 multiplicity 1
 C         0.182441        -0.177964         0.478932
 C         1.111399         0.231785        -0.639287
 C         0.587422         0.188496        -2.169581
 C         1.641295         1.045316        -3.001835
 C         1.477962         1.360022        -4.457214
 O         2.425251         0.396862        -4.061865
 C         2.438471         1.924007        -1.995569
 C         2.261342         1.192099        -0.541125
 O         2.486608        -0.230349        -0.683308
 H         0.530187        -1.204005         0.796726
 H         0.489566         0.371479         1.458076
 H        -0.869233        -0.043067         0.400939
 H         0.593144        -0.983267        -2.345030
 H        -0.364959         0.618901        -2.254644
 H         0.633306         0.915074        -5.046602
 H         1.712580         2.374190        -4.888227
 H         3.477335         1.846687        -2.379439
 H         2.033838         2.900198        -1.865269
 H         2.623239         1.694037         0.330789
