19
Iteration:  2978
 C         0.315305        -0.220639         0.427490
 C         1.133751         0.184663        -0.749100
 C         0.505220         0.412434        -2.179056
 C         1.634631         1.088057        -2.971953
 C         1.584701         1.366104        -4.413340
 O         2.314776         0.209588        -3.862164
 C         2.398829         1.943653        -1.945208
 C         2.230684         1.192297        -0.598881
 O         2.515535        -0.225290        -0.785461
 H         0.862235         0.067764         1.319000
 H        -0.688731         0.213509         0.426585
 H         0.149027        -1.296437         0.371592
 H         0.266157        -0.613569        -2.604448
 H        -0.497462         0.943070        -2.207455
 H         0.650867         1.097657        -4.895344
 H         2.208982         2.112737        -4.930551
 H         3.456928         2.045505        -2.219338
 H         1.959701         2.918168        -1.801876
 H         2.560912         1.477510         0.444428
