19
Iteration:   517charge 0 multiplicity 1
 C         0.237119        -0.097561         0.429777
 C         1.078168         0.233628        -0.759896
 C         0.420984         0.536339        -2.095857
 C         1.671166         1.113505        -2.917142
 C         1.568672         1.420148        -4.383504
 O         2.323239         0.252308        -3.959228
 C         2.573561         1.851982        -1.861970
 C         2.291207         0.991769        -0.655318
 O         2.492733        -0.384340        -0.848962
 H         0.377602        -1.258324         0.562844
 H         0.507350         0.267438         1.383836
 H        -0.875541         0.143811         0.296878
 H        -0.117526        -0.264181        -2.645666
 H        -0.322458         1.349458        -2.049759
 H         0.622571         1.197865        -4.792253
 H         2.100615         2.245439        -4.831785
 H         3.664287         1.821723        -2.225786
 H         2.128546         2.792869        -1.729573
 H         2.620881         1.524461         0.264532
