19
Iteration:  4794charge 0 multiplicity 1
 C         0.156108        -0.292478         0.414501
 C         1.145890         0.123668        -0.677746
 C         0.513658         0.426326        -2.032433
 C         1.609232         1.160906        -2.988803
 C         1.483616         1.256450        -4.444054
 O         2.486642         0.358132        -3.857589
 C         2.362974         2.007295        -1.952822
 C         2.306992         1.212363        -0.690372
 O         2.553464        -0.276636        -0.835873
 H         0.098722         0.259445         1.299319
 H        -0.874441        -0.491058        -0.031986
 H         0.533647        -1.326712         0.786889
 H         0.171137        -0.520897        -2.469584
 H        -0.454134         1.000691        -1.994306
 H         0.633299         0.669273        -4.844366
 H         1.786920         2.089977        -5.093375
 H         3.472064         1.872041        -2.154525
 H         2.157495         3.138204        -1.849965
 H         2.750718         1.590533         0.287141
