19
Iteration:  1567
 C        -0.080443         0.096923         0.091363
 C         1.218755         0.191006        -0.673079
 C         1.032610        -0.126615        -2.207206
 C         1.673093         0.977154        -2.934322
 C         1.104929         1.615249        -4.086616
 O         2.081485         0.569770        -4.390573
 C         2.825837         1.519503        -2.113278
 C         2.318421         1.260202        -0.556631
 O         2.525513        -0.227355        -0.178522
 H        -0.220576         0.939829         0.905697
 H        -0.904738         0.337988        -0.651061
 H        -0.183151        -0.809051         0.446806
 H         1.559651        -1.066071        -2.324765
 H         0.028922        -0.526359        -2.182998
 H         0.087528         1.488092        -4.429421
 H         1.605632         2.612613        -4.227510
 H         3.681206         0.852733        -2.145209
 H         3.013415         2.545148        -2.312238
 H         2.348816         2.067896         0.169198
