19
Iteration:  3081charge 0 multiplicity 1
 C         0.043969        -0.106284         0.296339
 C         1.132365         0.283540        -0.704932
 C         0.787282         0.094985        -2.064445
 C         1.697556         1.040392        -2.968495
 C         1.246591         1.404146        -4.318133
 O         2.332458         0.413428        -4.141373
 C         2.579265         1.845163        -2.031181
 C         2.316591         1.145747        -0.611593
 O         2.526983        -0.236820        -0.510396
 H         0.408359        -1.050111         0.820089
 H        -0.042674         0.786987         0.931475
 H        -0.921212        -0.371602        -0.182623
 H         0.893076        -0.914264        -2.547890
 H        -0.270431         0.500477        -2.170305
 H         0.300872         1.103703        -4.827543
 H         1.627301         2.393090        -4.599650
 H         3.641996         1.986896        -2.220262
 H         2.304993         2.863202        -1.990716
 H         2.518026         1.699761         0.426811
