19
Iteration:  2487
 C         0.202045         0.025497         0.514572
 C         1.151068         0.158621        -0.728812
 C         0.642693        -0.007362        -2.149453
 C         1.624931         1.002376        -3.004674
 C         1.360092         1.380018        -4.474852
 O         2.524149         0.406970        -4.086467
 C         2.356327         1.930696        -1.984130
 C         2.180057         1.178798        -0.624680
 O         2.534891        -0.204978        -0.548835
 H        -0.454304         0.865305         0.672918
 H        -0.380566        -0.950545         0.235750
 H         0.856565        -0.193956         1.346298
 H         0.787022        -1.140985        -2.355626
 H        -0.320322         0.422659        -2.487792
 H         0.543165         0.920084        -5.039670
 H         1.851388         2.294470        -4.857931
 H         3.406383         2.091636        -2.232108
 H         2.086086         2.931205        -1.580854
 H         2.329400         1.820602         0.267922
