19
Iteration:   237
 C        -0.094272         0.207450         0.067374
 C         1.172323         0.253228        -0.723887
 C         1.007449        -0.202044        -2.205866
 C         1.756127         0.888516        -2.921343
 C         1.159671         1.812187        -3.978881
 O         2.011293         0.688836        -4.361824
 C         2.953416         1.351565        -2.042997
 C         2.354816         1.166905        -0.664154
 O         2.388152        -0.287830        -0.226705
 H        -0.306116        -0.825953         0.242185
 H         0.081295         0.682962         1.121605
 H        -1.033905         0.427948        -0.443295
 H         1.439375        -1.234252        -2.322543
 H        -0.000361        -0.241675        -2.598556
 H         0.092882         1.825781        -4.310970
 H         1.702372         2.822584        -4.118607
 H         3.696949         0.561814        -2.134378
 H         3.426355         2.375682        -2.148200
 H         2.634652         1.780614         0.150437
