19
Iteration:  4602
 C         0.212923        -0.153757         0.451381
 C         1.082235         0.176739        -0.720255
 C         0.790885        -0.011228        -2.227401
 C         1.814383         0.816381        -3.068131
 C         1.253126         1.556507        -4.243795
 O         2.395197         0.571323        -4.286170
 C         2.517129         1.703392        -2.027307
 C         2.118585         1.287370        -0.668224
 O         2.493434        -0.104061        -0.323377
 H         0.199433        -1.205394         0.823265
 H         0.464847         0.583190         1.266521
 H        -0.835073        -0.049636         0.311825
 H         0.784034        -1.156478        -2.331063
 H        -0.315610         0.225131        -2.343100
 H         0.394995         1.169766        -4.828838
 H         1.471515         2.622049        -4.612100
 H         3.637625         1.451857        -2.023525
 H         2.344093         2.755259        -2.369995
 H         2.022118         1.948262         0.283174
