19
Iteration:   414
 C         0.021072         0.214696         0.236432
 C         1.111118         0.170185        -0.747700
 C         0.889093        -0.210040        -2.270538
 C         1.777824         0.825283        -3.020093
 C         1.204781         1.756198        -3.930471
 O         2.161023         0.717546        -4.381052
 C         2.799863         1.356711        -2.072536
 C         2.292758         1.112973        -0.680568
 O         2.407187        -0.189340        -0.230077
 H        -0.699225        -0.590382         0.119083
 H         0.407225         0.217073         1.397817
 H        -0.426678         1.191332         0.162764
 H         1.180105        -1.232563        -2.523778
 H        -0.176288         0.061446        -2.550512
 H         0.120744         1.539485        -4.182175
 H         1.602265         2.757189        -4.115345
 H         3.800156         0.965807        -2.073903
 H         3.170226         2.413521        -2.368347
 H         2.614461         1.833980         0.118155
