19
Iteration:   687
 C         0.183608         0.056048         0.387233
 C         1.102779         0.190037        -0.762483
 C         0.750149         0.020191        -2.148044
 C         1.672189         0.999008        -2.965391
 C         1.429980         1.582258        -4.301492
 O         2.249805         0.508156        -4.254585
 C         2.640391         1.654287        -1.950648
 C         2.236763         1.115008        -0.656823
 O         2.428829        -0.300915        -0.418348
 H        -0.573694         0.806550         0.205511
 H        -0.302938        -0.992336         0.661138
 H         0.779177         0.379345         1.288872
 H         0.699033        -0.942873        -2.629399
 H        -0.267441         0.395562        -2.304346
 H         0.442287         1.313624        -4.773164
 H         1.908602         2.562089        -4.697903
 H         3.654042         1.534408        -2.177459
 H         2.214508         2.695396        -1.815641
 H         2.247675         1.842757         0.160608
