19
Iteration:  2648
 C         0.119532         0.075793         0.296368
 C         1.092419         0.211800        -0.799170
 C         0.935393        -0.141636        -2.212559
 C         1.744170         0.925456        -2.964727
 C         1.202827         1.506155        -4.146595
 O         2.282624         0.478479        -4.214634
 C         2.554794         1.757090        -2.034292
 C         2.213901         1.203786        -0.639154
 O         2.505318        -0.148568        -0.398476
 H        -0.875621        -0.641813         0.177563
 H         0.421791        -0.430650         1.253457
 H        -0.247230         0.990885         0.603704
 H         1.242516        -1.136298        -2.618118
 H        -0.121626        -0.002713        -2.358036
 H         0.177717         1.174749        -4.402045
 H         1.707970         2.381392        -4.612991
 H         3.702615         1.577430        -1.995175
 H         2.489893         2.878470        -2.140732
 H         2.389180         1.789998         0.282190
