19
Iteration:   206charge 0 multiplicity 1
 C        -0.009685         0.231946         0.265541
 C         1.110078         0.135914        -0.761705
 C         0.797568        -0.101208        -2.284646
 C         1.735829         0.903331        -2.976621
 C         1.230399         1.711002        -4.123033
 O         2.172667         0.643146        -4.325870
 C         2.836938         1.491822        -1.957743
 C         2.342047         1.077304        -0.630383
 O         2.462736        -0.296280        -0.307282
 H        -0.655367        -0.641250         0.202335
 H         0.421267         0.059932         1.397573
 H        -0.521532         1.116724         0.215333
 H         1.017071        -1.178219        -2.469110
 H        -0.205705         0.178758        -2.623191
 H         0.266333         1.641381        -4.603377
 H         1.696761         2.693528        -4.294741
 H         3.859526         1.202980        -2.097070
 H         2.731862         2.625871        -1.833369
 H         2.551754         1.665183         0.237727
