19
Iteration:  1878
 C         0.304996        -0.317413         0.463855
 C         1.140874         0.184965        -0.729098
 C         0.462950         0.475382        -2.148510
 C         1.632886         1.102718        -2.926072
 C         1.636303         1.269263        -4.403501
 O         2.318906         0.155495        -3.916705
 C         2.414550         1.945682        -1.960662
 C         2.133962         1.257340        -0.638698
 O         2.580321        -0.152565        -0.795530
 H         0.788651        -1.203205         0.691639
 H         0.144827         0.223100         1.376898
 H        -0.741362        -0.623386         0.044338
 H        -0.109846        -0.430079        -2.466820
 H        -0.324512         1.278714        -2.102969
 H         0.775379         1.256234        -5.028008
 H         2.344826         2.045415        -4.759801
 H         3.482616         1.966373        -2.265268
 H         1.957897         2.973383        -1.879145
 H         2.428968         1.763132         0.276276
