19
Iteration:  4066
 C         0.081656        -0.122633         0.348824
 C         1.182196         0.134789        -0.673116
 C         0.858530        -0.019609        -2.200241
 C         1.688539         0.952803        -2.993736
 C         1.252491         1.456806        -4.311192
 O         2.298974         0.498519        -4.286417
 C         2.606244         1.714595        -1.995252
 C         2.115934         1.239241        -0.627119
 O         2.549198        -0.027464        -0.339128
 H        -0.707620        -0.621395        -0.162980
 H         0.417256        -0.572732         1.222251
 H        -0.512122         0.799255         0.765118
 H         1.076381        -0.943488        -2.596044
 H        -0.298958         0.239391        -2.239069
 H         0.388095         1.088157        -4.788169
 H         1.562850         2.474912        -4.410025
 H         3.659941         1.277757        -1.988211
 H         2.847576         2.802406        -2.239874
 H         2.420592         1.970862         0.248686
