19
Iteration:  3264charge 0 multiplicity 1
 C         0.333151        -0.190216         0.550662
 C         1.030504         0.241597        -0.727588
 C         0.562488         0.105551        -2.132289
 C         1.562648         0.931747        -2.963997
 C         1.504890         1.421921        -4.388373
 O         2.493080         0.462432        -4.019251
 C         2.491640         1.769369        -2.056019
 C         2.224529         1.248882        -0.696863
 O         2.400990        -0.120557        -0.643245
 H         0.425998        -1.237426         0.608572
 H         0.647392         0.150200         1.509034
 H        -0.826113         0.190953         0.548511
 H         0.439934        -0.941792        -2.396579
 H        -0.392731         0.485037        -2.335176
 H         0.679559         1.112696        -5.052216
 H         1.908417         2.407459        -4.659223
 H         3.525834         1.846837        -2.391385
 H         2.055745         2.856670        -2.193299
 H         2.563929         1.635228         0.314717
