19
Iteration:  3471
 C         0.210202        -0.160602         0.420325
 C         1.115374         0.173470        -0.744327
 C         0.677974         0.256934        -2.185488
 C         1.736145         1.052761        -3.014821
 C         1.323910         1.285574        -4.397964
 O         2.369783         0.356655        -4.001542
 C         2.532429         1.975622        -1.890315
 C         2.204080         1.206291        -0.592729
 O         2.497147        -0.228811        -0.665896
 H        -0.082836        -1.241747         0.422189
 H         0.547809         0.005690         1.450224
 H        -0.787873         0.391206         0.207272
 H         0.665046        -0.727229        -2.632599
 H        -0.260631         1.006998        -2.361123
 H         0.442409         0.745651        -4.716230
 H         1.692118         2.145508        -4.970131
 H         3.539778         1.714716        -2.140512
 H         2.317039         3.033570        -1.743687
 H         2.310317         1.716411         0.407021
