19
Iteration:  1666charge 0 multiplicity 1
 C         0.096761         0.009625         0.275278
 C         1.150256         0.242838        -0.688399
 C         0.906017        -0.050609        -2.183541
 C         1.655043         0.923473        -2.960619
 C         1.284148         1.560650        -4.271664
 O         2.190145         0.564385        -4.234058
 C         2.685667         1.560623        -2.018430
 C         2.239369         1.234138        -0.683192
 O         2.483234        -0.173585        -0.294008
 H         0.553220        -0.366961         1.331672
 H        -0.588812         0.963244         0.321637
 H        -0.506065        -0.760080        -0.127545
 H         1.198843        -1.110692        -2.375751
 H        -0.197969        -0.039899        -2.346727
 H         0.238309         1.392711        -4.610201
 H         1.753459         2.527745        -4.583946
 H         3.647482         1.216112        -2.374348
 H         2.465217         2.611757        -2.224427
 H         2.304263         1.868623         0.192198
