19
Iteration:  3883charge 0 multiplicity 1
 C         0.285147        -0.316352         0.391852
 C         1.190379         0.228153        -0.684874
 C         0.510475         0.376818        -2.101669
 C         1.536682         1.144114        -2.956950
 C         1.633814         1.284851        -4.475977
 O         2.327855         0.248908        -3.828768
 C         2.341206         1.878553        -1.993296
 C         2.223831         1.251593        -0.638895
 O         2.567302        -0.119825        -0.748046
 H        -0.005087        -1.261733        -0.106493
 H         0.789423        -0.576912         1.266092
 H        -0.753713         0.043098         0.603122
 H         0.344066        -0.618880        -2.625196
 H        -0.487345         0.653653        -2.088731
 H         0.805298         0.953653        -5.126362
 H         2.292607         2.089825        -4.852002
 H         3.357958         1.963732        -2.411212
 H         2.182721         2.911989        -1.802987
 H         2.345572         1.925374         0.276987
