19
Iteration:  2018charge 0 multiplicity 1
 C         0.126779        -0.180528         0.408822
 C         1.117814         0.237593        -0.652247
 C         0.855417         0.045634        -2.173058
 C         1.687622         0.934023        -2.997191
 C         1.352436         1.555321        -4.336008
 O         2.278521         0.412045        -4.238675
 C         2.593640         1.726928        -2.006144
 C         2.143281         1.356241        -0.657465
 O         2.480262        -0.134403        -0.415908
 H        -0.841119        -0.099570         0.021692
 H         0.193498        -1.355121         0.662737
 H         0.099821         0.425514         1.398584
 H         1.076639        -1.048184        -2.159986
 H        -0.174205        -0.112921        -2.353256
 H         0.496960         1.226471        -4.944852
 H         1.769121         2.592056        -4.536828
 H         3.621082         1.408343        -2.132950
 H         2.560806         2.757904        -2.318281
 H         2.381179         1.986882         0.176482
