19
Iteration:    94
 C         0.386948        -0.352275         0.335587
 C         1.104322         0.301814        -0.771577
 C         0.381943         0.749778        -2.086925
 C         1.598309         1.262440        -2.952972
 C         1.736308         1.234564        -4.420162
 O         2.204737         0.140267        -3.689203
 C         2.525521         1.903181        -1.849639
 C         2.321198         1.087011        -0.628319
 O         2.398082        -0.314024        -0.990681
 H         0.229699        -1.397804         0.019929
 H         0.937716        -0.293406         1.335262
 H        -0.710855        -0.045395         0.429385
 H        -0.156347        -0.057736        -2.683002
 H        -0.366236         1.538888        -1.908521
 H         0.834948         0.879011        -5.039305
 H         2.328236         2.016174        -4.989083
 H         3.618699         1.836760        -2.104994
 H         2.133002         2.940548        -1.650073
 H         2.694776         1.436878         0.337246
