19
Iteration:  4965
 C         0.139052        -0.080298         0.357332
 C         1.183469         0.101297        -0.692497
 C         0.667569         0.046477        -2.197134
 C         1.552564         1.041215        -2.958129
 C         1.396826         1.413175        -4.347442
 O         2.376794         0.489817        -4.084603
 C         2.464047         1.868671        -1.986922
 C         2.323482         1.238682        -0.681645
 O         2.575137        -0.283856        -0.474346
 H         0.706848        -0.147236         1.310028
 H        -0.619656         0.706796         0.402751
 H        -0.517472        -1.006929         0.203796
 H         0.641077        -0.900223        -2.701139
 H        -0.336756         0.466363        -2.209972
 H         0.501770         1.128344        -4.986679
 H         1.635475         2.492175        -4.608779
 H         3.487611         2.178618        -2.449048
 H         1.868910         2.786943        -1.796246
 H         2.537250         1.762413         0.240512
