19
Iteration:  4213
 C         0.120651        -0.241358         0.327868
 C         1.128916         0.288558        -0.731607
 C         0.735059         0.006138        -2.176486
 C         1.555571         1.016296        -2.953726
 C         1.440564         1.526597        -4.335770
 O         2.252336         0.368260        -4.128322
 C         2.560816         1.803606        -2.014047
 C         2.209544         1.268623        -0.603176
 O         2.592458        -0.112977        -0.457086
 H         0.148365        -1.304948         0.677456
 H         0.186331         0.422565         1.245581
 H        -0.855599        -0.080374         0.015900
 H         1.072270        -1.012147        -2.365908
 H        -0.325292         0.056275        -2.345691
 H         0.487679         1.392732        -4.943636
 H         1.952597         2.510194        -4.535759
 H         3.652501         1.538369        -2.203583
 H         2.618209         2.869940        -2.182227
 H         2.381299         1.824178         0.230838
