19
Iteration:  3719charge 0 multiplicity 1
 C         0.252321        -0.215432         0.350460
 C         1.121993         0.273928        -0.778002
 C         0.642291         0.211896        -2.184665
 C         1.699164         1.057115        -2.966599
 C         1.372568         1.371472        -4.376550
 O         2.357290         0.371045        -4.060640
 C         2.538706         1.807433        -1.987841
 C         2.222422         1.195615        -0.574643
 O         2.452811        -0.145667        -0.496468
 H         0.433627        -1.286044         0.643459
 H         0.352316         0.445995         1.180858
 H        -0.905917        -0.201237         0.075459
 H         0.639808        -0.834349        -2.732423
 H        -0.431783         0.529705        -2.209606
 H         0.441919         0.888730        -4.725862
 H         1.597104         2.329893        -4.891588
 H         3.633881         1.670347        -2.177822
 H         2.448996         2.907060        -1.999576
 H         2.487238         1.841366         0.349025
