19
Iteration:  4979
 C         0.183411        -0.114248         0.464108
 C         1.157929         0.148327        -0.717503
 C         0.716013         0.059489        -2.176062
 C         1.631491         1.010426        -3.025736
 C         1.379731         1.592521        -4.426196
 O         2.356261         0.417047        -4.116974
 C         2.416851         1.899551        -2.011134
 C         2.234472         1.101007        -0.626672
 O         2.550249        -0.231603        -0.463669
 H         0.583878         0.066398         1.422052
 H        -0.608063         0.684868         0.314981
 H        -0.184008        -1.188625         0.432284
 H         0.877876        -0.991577        -2.500046
 H        -0.441140         0.194872        -2.219800
 H         0.474093         1.227696        -4.957976
 H         2.003922         2.475095        -4.731701
 H         3.509206         1.823932        -2.319553
 H         2.098870         2.904303        -1.860137
 H         2.396132         1.787460         0.321520
