19
Iteration:  4494charge 0 multiplicity 1
 C         0.257780        -0.069195         0.466270
 C         1.089370         0.165185        -0.795541
 C         0.723102        -0.101539        -2.246208
 C         1.647113         0.955178        -3.010488
 C         1.320446         1.400199        -4.331245
 O         2.456949         0.557034        -4.097682
 C         2.493716         1.840094        -1.972043
 C         2.107954         1.216075        -0.616492
 O         2.482297        -0.124482        -0.484791
 H        -0.252081        -1.052557         0.514265
 H         1.033150         0.041400         1.280247
 H        -0.384402         0.752011         0.494715
 H         0.948321        -1.090806        -2.443670
 H        -0.263554         0.193391        -2.414850
 H         0.445850         1.012235        -4.822545
 H         1.474165         2.399586        -4.619308
 H         3.546531         1.627349        -2.336909
 H         2.256088         2.879051        -2.166839
 H         2.345345         1.768785         0.285324
