19
Iteration:   269charge 0 multiplicity 1
 C        -0.106194         0.219121         0.018806
 C         1.180392         0.211687        -0.763886
 C         1.120257        -0.265418        -2.256420
 C         1.918602         0.861905        -3.036006
 C         1.111422         1.817011        -3.738889
 O         1.912102         0.803159        -4.485702
 C         3.022378         1.209778        -2.107820
 C         2.269390         1.139710        -0.745388
 O         2.326352        -0.196888         0.026173
 H         0.011196        -0.652510         0.619693
 H        -0.086357         1.131504         0.660382
 H        -1.173121         0.188246        -0.465024
 H         1.531556        -1.291470        -2.454763
 H         0.148722        -0.229157        -2.707696
 H        -0.011047         1.751414        -3.735671
 H         1.547367         2.881403        -3.910266
 H         3.737326         0.412482        -2.266540
 H         3.690492         2.097708        -2.269822
 H         2.429575         2.011949        -0.175512
