19
Iteration:  4220
 C         0.148483        -0.203822         0.303609
 C         1.123961         0.215675        -0.751736
 C         0.731474         0.062723        -2.135069
 C         1.610966         0.998688        -2.974951
 C         1.419464         1.540832        -4.368910
 O         2.252251         0.371751        -4.073477
 C         2.516912         1.756723        -2.021001
 C         2.246744         1.278068        -0.633265
 O         2.590756        -0.107966        -0.421167
 H         0.299645        -1.264257         0.525361
 H         0.362044         0.234554         1.320008
 H        -0.890658        -0.016558        -0.109471
 H         0.941704        -0.918070        -2.561625
 H        -0.411284         0.182844        -2.399088
 H         0.520262         1.421294        -4.932410
 H         1.897649         2.479020        -4.581045
 H         3.585708         1.491277        -2.208204
 H         2.368142         2.855895        -2.188747
 H         2.114856         1.849048         0.412106
