19
Iteration:   737
 C        -0.008070         0.211449         0.192432
 C         1.135348         0.200733        -0.713862
 C         0.949311        -0.146387        -2.149542
 C         1.771860         0.820482        -2.998551
 C         1.113691         1.631515        -4.132902
 O         2.177146         0.654528        -4.292407
 C         2.851920         1.572452        -1.968516
 C         2.293553         1.157879        -0.634800
 O         2.436347        -0.233021        -0.340282
 H        -0.385930         1.205269         0.433125
 H        -0.690343        -0.267572        -0.370192
 H         0.017052        -0.517849         1.062676
 H         1.344719        -1.183576        -2.323839
 H        -0.112049        -0.235675        -2.479310
 H         0.169983         1.237812        -4.448210
 H         1.348831         2.633248        -4.318440
 H         3.851622         1.021033        -2.166735
 H         2.668078         2.569103        -2.270614
 H         2.529940         1.741991         0.257388
