19
Iteration:  4933charge 0 multiplicity 1
 C         0.067422        -0.122201         0.364086
 C         1.147851         0.180245        -0.725712
 C         0.692260         0.133084        -2.157188
 C         1.669754         1.082710        -2.885995
 C         1.257227         1.304876        -4.343610
 O         2.473468         0.396836        -4.042878
 C         2.490639         1.931816        -1.897107
 C         2.265621         1.228877        -0.588054
 O         2.574223        -0.225517        -0.762686
 H         0.687133        -0.462929         1.201323
 H        -0.417750         0.819197         0.627693
 H        -0.603791        -0.983703         0.059402
 H         0.656292        -0.879338        -2.552765
 H        -0.369270         0.517929        -2.339400
 H         0.338226         0.745188        -4.697641
 H         1.481002         2.328302        -4.749169
 H         3.601495         2.086617        -2.103621
 H         2.004838         2.854576        -1.741794
 H         2.630223         1.678311         0.364462
