19
Iteration:   841charge 0 multiplicity 1
 C        -0.088541         0.200680        -0.066386
 C         1.172373         0.204463        -0.807251
 C         1.155350        -0.328540        -2.247357
 C         1.927257         0.786496        -2.928324
 C         1.031784         1.568616        -3.769915
 O         1.935603         0.756631        -4.448981
 C         2.962664         1.301655        -2.056850
 C         2.277799         1.305724        -0.683266
 O         2.428353        -0.034524        -0.058357
 H         0.152256         0.128074         1.001861
 H        -0.657767         1.215116        -0.290665
 H        -0.820355        -0.537986        -0.274036
 H         1.655239        -1.291753        -2.197332
 H         0.131253        -0.371267        -2.616542
 H        -0.053597         1.279684        -4.014951
 H         1.065153         2.706222        -3.842794
 H         3.812522         0.643925        -2.155993
 H         3.342045         2.328390        -2.329302
 H         2.131041         2.205875        -0.063722
