19
Iteration:  1469charge 0 multiplicity 1
 C        -0.045261         0.138144         0.068456
 C         1.229136         0.155634        -0.725415
 C         1.095904        -0.206979        -2.152561
 C         1.752798         0.851059        -3.059209
 C         1.040708         1.686238        -4.081424
 O         2.102669         0.620538        -4.346600
 C         2.770344         1.429848        -2.069198
 C         2.299734         1.290193        -0.631773
 O         2.489779        -0.132957        -0.072784
 H         0.237634         0.257778         1.256587
 H        -0.837977         0.906495        -0.212779
 H        -0.502971        -0.844429        -0.122786
 H         1.453733        -1.200981        -2.461144
 H         0.040650        -0.361135        -2.468023
 H         0.006668         1.395446        -4.356649
 H         1.318578         2.738478        -4.318549
 H         3.699749         0.912976        -2.414010
 H         2.962708         2.501946        -2.111861
 H         2.271164         2.087514         0.123210
