19
Iteration:  1661
 C         0.103606         0.017140         0.311001
 C         1.117022         0.239477        -0.741159
 C         0.893460        -0.122639        -2.170606
 C         1.673641         0.920460        -2.949814
 C         1.255506         1.591983        -4.204126
 O         2.223468         0.543181        -4.239442
 C         2.644024         1.561125        -2.047710
 C         2.274099         1.240104        -0.700734
 O         2.468075        -0.152281        -0.311900
 H         0.478799        -0.199237         1.244309
 H        -0.343756         0.953659         0.410113
 H        -0.622247        -0.751181        -0.134897
 H         1.260919        -1.073478        -2.564272
 H        -0.161412        -0.115568        -2.423201
 H         0.249626         1.502028        -4.606935
 H         1.781793         2.519839        -4.417880
 H         3.703932         1.253993        -2.227450
 H         2.667905         2.663106        -2.186222
 H         2.230184         1.942122         0.151743
