19
Iteration:  1451
 C        -0.018925         0.150406         0.061031
 C         1.210458         0.232062        -0.780202
 C         1.071252        -0.213606        -2.228764
 C         1.776335         0.929750        -2.926523
 C         1.103144         1.558894        -4.057980
 O         1.967589         0.548243        -4.412417
 C         2.863445         1.622938        -1.950855
 C         2.279134         1.176693        -0.610972
 O         2.508554        -0.145382        -0.146013
 H        -0.006588         0.283963         1.043265
 H        -0.618952         1.015124        -0.260680
 H        -0.666577        -0.835134        -0.178617
 H         1.594147        -1.200074        -2.226241
 H         0.025103        -0.452488        -2.510613
 H         0.076667         1.383058        -4.296307
 H         1.516352         2.552758        -4.307347
 H         3.857627         1.141365        -2.016466
 H         2.725115         2.702024        -2.255452
 H         2.307304         1.801762         0.260423
