19
Iteration:  2102charge 0 multiplicity 1
 C        -0.043703         0.030848         0.352897
 C         1.131464         0.245867        -0.718692
 C         1.010054        -0.112159        -2.210394
 C         1.699722         0.922844        -2.977685
 C         1.186874         1.445997        -4.277457
 O         2.315570         0.517212        -4.227181
 C         2.557969         1.774939        -1.980166
 C         2.243285         1.207084        -0.582397
 O         2.564860        -0.157648        -0.403667
 H        -0.682101         0.985487         0.499980
 H        -0.766408        -0.695500        -0.192948
 H         0.210037        -0.416608         1.220324
 H         1.750345        -0.970080        -2.241417
 H        -0.102024        -0.334466        -2.418882
 H         0.241739         0.957732        -4.619074
 H         1.371196         2.440670        -4.772059
 H         3.714302         1.692119        -2.167937
 H         2.204109         2.782597        -2.324812
 H         2.399872         1.943185         0.222311
