19
Iteration:   474charge 0 multiplicity 1
 C         0.077528        -0.019840         0.386597
 C         1.120432         0.309943        -0.730512
 C         0.677091         0.174489        -2.142605
 C         1.657553         1.059177        -2.943757
 C         1.432073         1.659516        -4.279893
 O         2.172446         0.390270        -4.159663
 C         2.776749         1.675413        -2.036715
 C         2.352485         1.103703        -0.660503
 O         2.421763        -0.385501        -0.504944
 H         0.204464        -1.133556         0.580637
 H         0.190232         0.444517         1.275271
 H        -1.046886        -0.054707         0.025259
 H         0.694788        -0.874195        -2.504788
 H        -0.357146         0.457176        -2.226286
 H         0.496793         1.626294        -4.788081
 H         2.032867         2.470378        -4.682964
 H         3.869552         1.386260        -2.116154
 H         2.470491         2.658111        -1.882164
 H         2.656116         1.710375         0.221387
