19
Iteration:  2240
 C         0.098349        -0.240906         0.335434
 C         1.134817         0.185579        -0.727890
 C         0.720541         0.129062        -2.126804
 C         1.648069         0.990054        -2.970198
 C         1.369539         1.436910        -4.373619
 O         2.348197         0.376705        -4.141276
 C         2.537428         1.753347        -2.047387
 C         2.218208         1.290590        -0.603518
 O         2.585143        -0.075597        -0.416154
 H        -0.877376         0.127213         0.007388
 H        -0.024665        -1.237891         0.492349
 H         0.349745         0.147765         1.399684
 H         0.572632        -0.833965        -2.548322
 H        -0.250936         0.639617        -2.060408
 H         0.489961         1.248097        -4.977686
 H         1.868670         2.382679        -4.601570
 H         3.581440         1.640510        -2.223738
 H         2.315706         2.805415        -2.250846
 H         2.175671         2.045416         0.234189
