19
Iteration:  2726
 C         0.143575        -0.060270         0.437766
 C         1.048536         0.237514        -0.803556
 C         0.789959        -0.045683        -2.263252
 C         1.767205         0.918369        -2.990035
 C         1.307995         1.546375        -4.177891
 O         2.255110         0.458690        -4.226330
 C         2.637288         1.640258        -1.969865
 C         2.153333         1.265220        -0.595032
 O         2.503952        -0.089156        -0.482111
 H         0.584169        -1.014504         0.939127
 H         0.097196         0.804225         1.143940
 H        -0.793505        -0.425822         0.235956
 H         1.018114        -1.052747        -2.625775
 H        -0.141825         0.304219        -2.468108
 H         0.293759         1.265904        -4.497375
 H         1.653680         2.501377        -4.566794
 H         3.675924         1.253052        -2.081859
 H         2.792410         2.745868        -2.144140
 H         2.346171         2.007806         0.120500
