19
Iteration:   359charge 0 multiplicity 1
 C        -0.115087         0.459594        -0.136826
 C         1.201414         0.193928        -0.806253
 C         1.221728        -0.251580        -2.320984
 C         1.884288         0.839948        -3.014358
 C         0.924514         1.724870        -3.752478
 O         1.839350         0.783686        -4.399883
 C         3.054457         1.245219        -2.036573
 C         2.393252         1.081325        -0.612224
 O         2.393221        -0.273215         0.007402
 H        -0.653066        -0.423783        -0.439399
 H         0.063560         0.463783         1.077381
 H        -0.776829         1.210578        -0.498799
 H         1.862669        -1.142737        -2.460464
 H         0.227674        -0.601608        -2.700824
 H        -0.166745         1.560881        -3.995571
 H         1.248145         2.772927        -3.861375
 H         3.952369         0.644609        -2.181119
 H         3.418574         2.322623        -2.277473
 H         2.166976         1.829183         0.165069
