19
Iteration:  3226charge 0 multiplicity 1
 C         0.142642        -0.003881         0.369529
 C         1.215519         0.107146        -0.706921
 C         0.782373         0.058778        -2.196380
 C         1.685555         1.040689        -2.978869
 C         1.368249         1.384593        -4.377059
 O         2.313340         0.387589        -4.099457
 C         2.425723         1.900467        -1.918129
 C         2.228368         1.160710        -0.595302
 O         2.531714        -0.198278        -0.565888
 H        -0.624474        -0.880598         0.283857
 H         0.802631         0.049208         1.299751
 H        -0.446767         0.823621         0.336485
 H         0.899439        -0.934523        -2.672708
 H        -0.301110         0.347622        -2.035933
 H         0.433151         1.050795        -4.824898
 H         1.804787         2.290512        -4.822785
 H         3.513312         2.149715        -2.096104
 H         1.887740         2.806061        -1.840863
 H         2.185983         1.799351         0.236307
