19
Iteration:   885
 C        -0.076678         0.338882         0.021131
 C         1.156635         0.147728        -0.752405
 C         1.244112        -0.308490        -2.228419
 C         1.735697         0.823204        -2.939189
 C         1.052304         1.592999        -3.961715
 O         2.031259         0.710277        -4.336212
 C         2.848241         1.475259        -2.132811
 C         2.320956         1.138773        -0.661641
 O         2.414519        -0.178295        -0.105169
 H         0.189018         0.527811         1.057794
 H        -0.603212         1.241376        -0.494908
 H        -0.811777        -0.369822        -0.040586
 H         2.068737        -1.020331        -2.320946
 H         0.301570        -0.706587        -2.589751
 H        -0.093406         1.499237        -3.976798
 H         1.358424         2.666996        -4.002802
 H         3.854638         1.095687        -2.223016
 H         2.750542         2.584259        -2.307320
 H         2.320286         1.788651         0.208253
