19
Iteration:  2781charge 0 multiplicity 1
 C         0.134963        -0.049220         0.332603
 C         1.155205         0.161815        -0.734017
 C         0.674295         0.125606        -2.145195
 C         1.646493         1.014041        -3.019673
 C         1.346256         1.490577        -4.356555
 O         2.269149         0.439016        -4.151347
 C         2.588775         1.750611        -2.022676
 C         2.221257         1.186860        -0.604505
 O         2.610544        -0.236820        -0.370791
 H         0.607647        -0.620368         1.209870
 H        -0.391018         0.907563         0.588046
 H        -0.555398        -0.646016        -0.161972
 H         0.822187        -0.863780        -2.573170
 H        -0.323973         0.252483        -2.352850
 H         0.491776         1.109092        -4.924612
 H         1.761364         2.476462        -4.521949
 H         3.631397         1.628530        -2.302650
 H         2.235073         2.799877        -1.816722
 H         2.293209         1.874616         0.196285
