19
Iteration:   955charge 0 multiplicity 1
 C         0.049786         0.007515         0.323358
 C         1.035653         0.320114        -0.783626
 C         0.917666        -0.164996        -2.191215
 C         1.858573         0.890923        -2.973475
 C         1.216973         1.635862        -4.158446
 O         2.105165         0.570045        -4.321292
 C         2.884587         1.524459        -2.038456
 C         2.262231         1.269721        -0.628280
 O         2.337201        -0.132142        -0.320249
 H         0.364697         0.521742         1.360369
 H        -0.971400        -0.030347         0.081048
 H         0.213671        -1.124212         0.414038
 H         1.423365        -1.140977        -2.245874
 H        -0.140971        -0.166772        -2.448785
 H         0.322016         1.455507        -4.668936
 H         1.646974         2.623146        -4.304720
 H         3.800907         0.933730        -1.942091
 H         2.880882         2.495101        -2.406510
 H         2.513745         1.953896         0.206897
