19
Iteration:   569charge 0 multiplicity 1
 C         0.356338        -0.284896         0.351411
 C         1.058499         0.347982        -0.791424
 C         0.386658         0.648906        -2.083103
 C         1.562305         1.161419        -2.908618
 C         1.712683         1.277978        -4.379710
 O         2.306736         0.186220        -3.558714
 C         2.473992         1.927829        -1.919506
 C         2.382365         1.044591        -0.672270
 O         2.370250        -0.299324        -1.106267
 H        -0.462973        -1.054749         0.132940
 H         1.154799        -0.752096         1.060601
 H        -0.082103         0.397498         0.956627
 H        -0.118244        -0.244238        -2.484110
 H        -0.449802         1.388057        -1.924497
 H         0.936851         1.093781        -5.109331
 H         2.595456         1.781174        -4.836638
 H         3.428038         1.908338        -2.452378
 H         1.848682         2.837388        -1.713523
 H         2.965942         1.283192         0.228692
