19
Iteration:  1069
 C         0.265815        -0.080498         0.531113
 C         1.131126         0.299320        -0.797302
 C         0.570710         0.313897        -2.172282
 C         1.626811         1.044964        -2.902841
 C         1.543344         1.273520        -4.358251
 O         2.434575         0.350154        -3.884105
 C         2.364207         1.928024        -1.928076
 C         2.235158         1.126766        -0.662434
 O         2.461215        -0.353407        -0.893477
 H         0.932061        -0.230915         1.297887
 H        -0.390202         0.817442         0.864207
 H        -0.491230        -0.976723         0.338563
 H         0.390484        -0.699225        -2.568478
 H        -0.320105         0.962659        -2.360665
 H         0.684260         0.951733        -4.973461
 H         1.982393         2.250196        -4.560494
 H         3.389936         1.972233        -2.203259
 H         1.858414         2.900303        -1.779626
 H         2.639077         1.542442         0.242806
