19
Iteration:  4604charge 0 multiplicity 1
 C         0.226455        -0.132657         0.448524
 C         1.074781         0.180454        -0.724896
 C         0.793373        -0.025113        -2.234384
 C         1.800727         0.803147        -3.064537
 C         1.268080         1.569661        -4.238634
 O         2.401854         0.567770        -4.282356
 C         2.499676         1.702268        -2.033891
 C         2.127482         1.297766        -0.659523
 O         2.488375        -0.111071        -0.318681
 H         0.237463        -1.234944         0.818005
 H         0.433677         0.590756         1.223253
 H        -0.832892        -0.129712         0.325775
 H         0.813699        -1.114790        -2.362814
 H        -0.275935         0.264779        -2.292734
 H         0.384066         1.191589        -4.824874
 H         1.408132         2.654130        -4.597779
 H         3.655839         1.399988        -2.097840
 H         2.283090         2.754500        -2.343722
 H         2.019889         1.895626         0.236826
