19
Iteration:  1701charge 0 multiplicity 1
 C         0.032677        -0.106859         0.306714
 C         1.176709         0.213668        -0.683429
 C         0.790172         0.176958        -2.217704
 C         1.725894         1.014391        -2.946999
 C         1.276237         1.440031        -4.290355
 O         2.214408         0.428587        -4.257902
 C         2.726562         1.707859        -1.967381
 C         2.275958         1.183040        -0.605102
 O         2.511804        -0.182462        -0.386928
 H         0.178984         0.130797         1.382765
 H        -0.983750         0.435550         0.041669
 H        -0.183217        -1.256841         0.286717
 H         0.738292        -0.929823        -2.483168
 H        -0.211035         0.678402        -2.308645
 H         0.197204         1.151206        -4.470893
 H         1.553160         2.369498        -4.789300
 H         3.767972         1.539935        -2.358756
 H         2.616193         2.870486        -1.966891
 H         2.511036         1.842084         0.217391
