19
Iteration:  3639charge 0 multiplicity 1
 C         0.173569         0.016636         0.333878
 C         1.140317         0.158093        -0.816788
 C         0.865212        -0.080202        -2.246050
 C         1.676402         0.964173        -2.996001
 C         1.301866         1.534596        -4.244310
 O         2.317400         0.396188        -4.160278
 C         2.529783         1.788227        -1.979262
 C         2.205881         1.218965        -0.629827
 O         2.469724        -0.153788        -0.385706
 H        -0.438902        -0.836596         0.298130
 H         0.532444        -0.114525         1.441586
 H        -0.549438         1.008265         0.478989
 H         1.160454        -1.096324        -2.608344
 H        -0.234821         0.090296        -2.398376
 H         0.342242         1.348771        -4.714426
 H         1.847132         2.401081        -4.614577
 H         3.590002         1.816913        -2.311040
 H         2.134937         2.758360        -1.769718
 H         2.158732         1.854975         0.254268
