19
Iteration:  1593
 C        -0.036942         0.150753         0.216782
 C         1.175463         0.229069        -0.711164
 C         1.021530        -0.168843        -2.270416
 C         1.767072         0.910749        -3.010893
 C         1.061943         1.603121        -4.207181
 O         2.105306         0.661706        -4.265913
 C         2.810937         1.497831        -2.056211
 C         2.357251         1.188119        -0.631975
 O         2.481200        -0.199914        -0.149746
 H         0.061786         0.360202         1.201280
 H        -0.861863         0.740998        -0.183146
 H        -0.288923        -1.019184         0.103855
 H         1.359373        -1.237071        -2.187846
 H        -0.052861        -0.356891        -2.398755
 H         0.138338         1.174481        -4.623580
 H         1.343260         2.608734        -4.475823
 H         3.798583         1.017933        -2.281224
 H         2.781678         2.658472        -2.074401
 H         2.299356         2.061433         0.012044
