19
Iteration:  2123
 C         0.130401         0.085587         0.224053
 C         1.179031         0.184557        -0.759067
 C         0.964755        -0.192741        -2.235074
 C         1.714431         0.952735        -2.936136
 C         1.146921         1.375430        -4.251495
 O         2.332431         0.546733        -4.216403
 C         2.550659         1.845909        -1.985237
 C         2.219174         1.190303        -0.647540
 O         2.446147        -0.187092        -0.302418
 H        -0.365692         1.152979         0.253074
 H        -0.671409        -0.680140         0.161785
 H         0.586297        -0.097853         1.152617
 H         1.432773        -1.171222        -2.463597
 H        -0.167550        -0.110167        -2.305148
 H         0.257263         1.064874        -4.793077
 H         1.413417         2.428728        -4.455059
 H         3.677106         1.929147        -2.082843
 H         2.130937         2.897057        -1.946673
 H         2.238220         1.847982         0.248858
