19
Iteration:   252
 C        -0.108197         0.161386         0.073332
 C         1.116065         0.263207        -0.818126
 C         1.036458        -0.206096        -2.280771
 C         1.825365         0.862117        -3.009084
 C         1.132712         1.834569        -3.912034
 O         1.916211         0.757744        -4.396422
 C         3.058682         1.193826        -2.010721
 C         2.419226         1.095242        -0.617288
 O         2.373421        -0.161951        -0.118403
 H        -0.179152        -0.844732         0.595374
 H        -0.259883         0.995404         0.892596
 H        -0.868874         0.433530        -0.615972
 H         1.648550        -1.096835        -2.348453
 H        -0.033463        -0.395170        -2.581639
 H         0.091979         1.673230        -4.114290
 H         1.476016         2.798867        -4.058640
 H         3.980219         0.547114        -2.102960
 H         3.234899         2.254920        -2.241616
 H         2.351265         1.976977         0.093780
