19
Iteration:  2388charge 0 multiplicity 1
 C         0.401968        -0.393422         0.298826
 C         1.111987         0.324464        -0.827733
 C         0.459333         0.458484        -2.151046
 C         1.613947         1.050099        -2.888525
 C         1.584406         1.154429        -4.345013
 O         2.375779         0.128159        -3.823653
 C         2.397356         1.964332        -1.918306
 C         2.156298         1.306122        -0.595834
 O         2.516515        -0.034131        -0.795373
 H        -0.714504        -0.247246         0.226039
 H         0.532499        -1.573947         0.185672
 H         0.816204         0.055420         1.219965
 H         0.110694        -0.502458        -2.722901
 H        -0.326860         1.201200        -1.770654
 H         0.699122         0.880399        -4.966023
 H         2.064402         1.978423        -4.897111
 H         3.469827         1.997832        -2.181280
 H         1.968582         2.963228        -2.109019
 H         2.252137         1.687447         0.435122
