19
Iteration:  2884
 C         0.368304        -0.186593         0.433156
 C         1.123790         0.157004        -0.805125
 C         0.460965         0.384803        -2.162759
 C         1.531563         1.078599        -2.917826
 C         1.685037         1.374390        -4.404329
 O         2.267712         0.213645        -3.882645
 C         2.433742         1.885811        -1.898154
 C         2.209466         1.162684        -0.639330
 O         2.519331        -0.200719        -0.785288
 H         0.444311         0.608778         1.131883
 H        -0.664155        -0.393073         0.181737
 H         0.786558        -1.251038         0.790740
 H         0.010116        -0.450172        -2.733965
 H        -0.311415         1.110433        -1.956273
 H         0.883591         1.221399        -5.151773
 H         2.340575         2.206362        -4.750712
 H         3.546004         2.088697        -2.061585
 H         2.061830         3.041921        -2.042052
 H         2.401864         1.637416         0.391754
