19
Iteration:  4416charge 0 multiplicity 1
 C         0.246513        -0.382411         0.269378
 C         1.159563         0.172789        -0.733840
 C         0.573652         0.355637        -2.127474
 C         1.662541         1.025276        -2.945490
 C         1.439911         1.308742        -4.432955
 O         2.312805         0.215287        -3.901978
 C         2.427348         2.007030        -1.926101
 C         2.207314         1.318862        -0.655285
 O         2.608853        -0.099736        -0.626455
 H         0.646725        -1.362429         0.467052
 H         0.348034         0.200732         1.269810
 H        -0.775589        -0.535396        -0.022880
 H         0.118940        -0.468317        -2.627761
 H        -0.215857         1.067832        -1.961861
 H         0.687422         0.839932        -4.973293
 H         2.020883         2.024255        -4.884100
 H         3.464208         2.186191        -2.170119
 H         1.801098         2.922833        -1.932186
 H         2.410858         1.921086         0.296360
