19
Iteration:  1902charge 0 multiplicity 1
 C         0.329139        -0.223329         0.499075
 C         1.095858         0.248111        -0.773091
 C         0.516814         0.276792        -2.181182
 C         1.612605         1.047083        -2.962186
 C         1.586625         1.397049        -4.398290
 O         2.343598         0.241549        -3.873571
 C         2.438057         1.904377        -1.989369
 C         2.188660         1.209932        -0.621969
 O         2.497939        -0.154992        -0.789917
 H         0.462908        -1.311991         0.716320
 H         0.510588         0.284825         1.345324
 H        -0.780670        -0.074940         0.313704
 H         0.378349        -0.770918        -2.302048
 H        -0.514390         0.712217        -2.336614
 H         0.771966         1.191826        -5.070982
 H         2.252590         2.160423        -4.764211
 H         3.533991         1.932169        -2.203043
 H         1.999885         2.944623        -1.928130
 H         2.556567         1.544213         0.347878
