19
Iteration:  3049
 C         0.208926        -0.089749         0.382399
 C         1.084334         0.172400        -0.781766
 C         0.653060         0.185761        -2.170620
 C         1.698222         1.065189        -2.981516
 C         1.272932         1.357052        -4.392000
 O         2.425496         0.429569        -4.074060
 C         2.561723         1.847522        -1.910654
 C         2.210828         1.172429        -0.559761
 O         2.517791        -0.273552        -0.581414
 H         0.739276        -0.750855         1.154139
 H         0.114331         0.903977         0.926312
 H        -0.844941        -0.287525         0.119848
 H         0.506311        -0.767755        -2.677108
 H        -0.380545         0.569638        -2.193149
 H         0.326222         0.914956        -4.771127
 H         1.626315         2.272700        -4.866052
 H         3.652507         1.767042        -2.197982
 H         2.342869         2.909146        -2.065906
 H         2.400638         1.758934         0.406003
