19
Iteration:   850charge 0 multiplicity 1
 C        -0.104114         0.242194        -0.044388
 C         1.219102         0.242015        -0.826287
 C         1.166644        -0.262393        -2.221162
 C         1.889910         0.741291        -3.016651
 C         0.948286         1.570916        -3.779549
 O         1.976968         0.741535        -4.442942
 C         2.999493         1.334164        -2.003952
 C         2.232846         1.232390        -0.661667
 O         2.416824        -0.058994        -0.087272
 H         0.042018         0.195374         0.939239
 H        -0.541367         1.271760        -0.152963
 H        -0.756812        -0.624220        -0.340446
 H         1.731870        -1.209375        -2.205898
 H         0.243134        -0.593122        -2.724300
 H        -0.085684         1.167844        -3.641279
 H         1.225717         2.661219        -3.932662
 H         3.990353         0.795320        -2.043688
 H         3.185729         2.417262        -2.374923
 H         2.280201         2.119621        -0.011275
