19
Iteration:   628
 C         0.288097        -0.288989         0.357181
 C         1.134171         0.313281        -0.715100
 C         0.488998         0.518023        -2.140945
 C         1.606842         1.139557        -2.914301
 C         1.520954         1.343348        -4.401486
 O         2.280823         0.223798        -3.903151
 C         2.556909         1.887124        -1.916257
 C         2.319743         1.181308        -0.619299
 O         2.425660        -0.363399        -0.753640
 H        -0.702867        -0.318385        -0.176301
 H         0.542100        -1.251742         0.657952
 H         0.134535         0.517735         1.178890
 H         0.245144        -0.468544        -2.583540
 H        -0.349340         1.235562        -2.171470
 H         0.678012         1.197628        -5.078632
 H         2.219343         2.032801        -4.784765
 H         3.622148         1.860554        -2.312834
 H         2.470194         2.933848        -1.913446
 H         2.693246         1.678836         0.280825
