19
Iteration:  2803charge 0 multiplicity 1
 C         0.113709        -0.030124         0.327601
 C         1.176732         0.112473        -0.718359
 C         0.776434         0.119506        -2.212387
 C         1.660783         1.021695        -2.968148
 C         1.312535         1.407600        -4.308905
 O         2.307858         0.421260        -4.063687
 C         2.550893         1.846529        -1.935066
 C         2.265778         1.194924        -0.599359
 O         2.527113        -0.250632        -0.575325
 H         0.607720        -0.084685         1.354573
 H        -0.565511         0.868895         0.206142
 H        -0.430185        -0.915192         0.132489
 H         0.419858        -0.826714        -2.591840
 H        -0.100055         0.729019        -2.308113
 H         0.280745         1.095253        -4.509423
 H         1.749929         2.263427        -4.795331
 H         3.546362         1.630063        -2.283249
 H         2.265083         2.948711        -1.874603
 H         2.440303         1.802389         0.251422
