19
Iteration:  4462charge 0 multiplicity 1
 C         0.259354        -0.178833         0.472571
 C         1.045138         0.217913        -0.719548
 C         0.701176         0.031641        -2.123278
 C         1.616561         1.019608        -2.986624
 C         1.456512         1.435671        -4.441410
 O         2.408398         0.421190        -4.023652
 C         2.413955         1.893697        -2.029872
 C         2.169581         1.211679        -0.642197
 O         2.527565        -0.134885        -0.624251
 H         0.239473        -1.285512         0.745802
 H         0.512478         0.448019         1.396464
 H        -0.773649         0.013994         0.282552
 H         0.823421        -1.025481        -2.235475
 H        -0.359450         0.223236        -2.218659
 H         0.561181         1.054007        -4.865111
 H         1.924222         2.351059        -4.695437
 H         3.535354         1.797243        -2.274304
 H         2.062223         2.915308        -2.035390
 H         2.404611         1.674344         0.286901
