19
Iteration:  4005
 C         0.101595        -0.056636         0.401615
 C         1.107717         0.160543        -0.710399
 C         0.803950         0.046938        -2.105812
 C         1.820448         0.889455        -2.987588
 C         1.348553         1.479988        -4.305137
 O         2.284130         0.404739        -4.238223
 C         2.540019         1.832597        -1.930128
 C         2.097714         1.271107        -0.595741
 O         2.557515        -0.145779        -0.540999
 H        -0.294167        -1.116729         0.341510
 H         0.629618        -0.046033         1.448667
 H        -0.719469         0.618823         0.217014
 H         0.993116        -1.048081        -2.639214
 H        -0.228981         0.127072        -2.415060
 H         0.272998         1.227071        -4.576330
 H         1.608145         2.476093        -4.798718
 H         3.666488         1.917239        -2.149243
 H         2.194941         2.852505        -2.109925
 H         2.424925         1.680342         0.326973
