19
Iteration:  3825charge 0 multiplicity 1
 C         0.321951        -0.227553         0.420109
 C         1.043153         0.189872        -0.803137
 C         0.490527         0.370862        -2.148957
 C         1.709781         1.037502        -2.937781
 C         1.480649         1.182772        -4.418048
 O         2.473237         0.259647        -3.846940
 C         2.324364         2.038737        -1.852675
 C         2.170419         1.212469        -0.589227
 O         2.553370        -0.149013        -0.889109
 H        -0.397669        -0.960275         0.220767
 H         1.053951        -0.757723         1.003392
 H        -0.045479         0.705162         0.925876
 H         0.300658        -0.568747        -2.526990
 H        -0.305261         1.089758        -2.283958
 H         0.651823         0.704499        -4.915308
 H         1.963498         1.986997        -4.937360
 H         3.395765         2.038096        -2.033709
 H         1.877834         3.023406        -1.742821
 H         2.442927         1.628682         0.400713
