19
Iteration:  3372
 C         0.404869        -0.344180         0.439485
 C         1.051863         0.305841        -0.746222
 C         0.485233         0.359912        -2.133790
 C         1.630096         1.089450        -2.921203
 C         1.589251         1.201540        -4.377743
 O         2.449252         0.274406        -3.800318
 C         2.408346         2.002468        -1.982864
 C         2.203037         1.239886        -0.686697
 O         2.404215        -0.176132        -0.844848
 H        -0.199323        -1.200432         0.129683
 H         1.150080        -0.570166         1.162310
 H        -0.418433         0.404201         0.877775
 H         0.434731        -0.559666        -2.674250
 H        -0.411530         1.074436        -2.222629
 H         0.713149         0.710755        -4.800993
 H         2.017047         2.019435        -4.969721
 H         3.471778         2.033819        -2.097841
 H         1.834903         2.921295        -2.146020
 H         2.331225         1.653502         0.354826
