19
Iteration:  4093
 C         0.127646        -0.061621         0.295249
 C         1.167453         0.297286        -0.776541
 C         0.922486        -0.103340        -2.239777
 C         1.814745         0.849611        -2.992436
 C         1.242750         1.519381        -4.172060
 O         2.230893         0.434693        -4.227872
 C         2.576281         1.808747        -1.954900
 C         2.154084         1.247314        -0.645817
 O         2.480458        -0.139694        -0.372344
 H        -0.701031        -0.659223        -0.204360
 H         0.633621        -0.417009         1.292072
 H        -0.493327         0.712517         0.608201
 H         1.092285        -1.257580        -2.434235
 H        -0.105440         0.148636        -2.441585
 H         0.168123         1.149184        -4.394102
 H         1.606033         2.556254        -4.454888
 H         3.690839         1.922378        -2.160097
 H         2.379153         2.847398        -2.105406
 H         2.135740         1.907437         0.114544
