19
Iteration:  4480charge 0 multiplicity 1
 C         0.271253        -0.083933         0.508728
 C         1.128890         0.193980        -0.708235
 C         0.725693        -0.028869        -2.261781
 C         1.562754         1.001694        -2.933512
 C         1.372182         1.420246        -4.339866
 O         2.468063         0.509818        -4.015011
 C         2.441073         1.783948        -2.043333
 C         2.113772         1.323740        -0.692460
 O         2.472246        -0.211876        -0.584711
 H         0.133072        -1.114631         0.591771
 H         0.788869         0.174368         1.420903
 H        -0.711056         0.374087         0.541773
 H         1.070357        -0.976713        -2.739997
 H        -0.316481        -0.048540        -2.517590
 H         0.687690         0.933264        -5.053259
 H         1.608411         2.431484        -4.682125
 H         3.476987         1.613593        -2.159859
 H         2.399306         2.909729        -2.051123
 H         2.279758         1.929994         0.273263
