19
Iteration:  1028charge 0 multiplicity 1
 C         0.117272        -0.027573         0.366018
 C         1.123131         0.251842        -0.665614
 C         0.709435         0.188216        -2.226676
 C         1.629875         1.006674        -2.957351
 C         1.375759         1.416360        -4.355956
 O         2.347407         0.432488        -4.092049
 C         2.549978         1.820834        -1.989230
 C         2.259536         1.150665        -0.608151
 O         2.523463        -0.326681        -0.528786
 H         0.759606        -0.264544         1.287893
 H        -0.677698         0.751724         0.542842
 H        -0.360779        -0.901892         0.146906
 H         0.764068        -0.850825        -2.552430
 H        -0.285763         0.624854        -2.295552
 H         0.475899         0.986480        -4.925348
 H         1.694074         2.441099        -4.718889
 H         3.604741         1.589763        -2.265924
 H         2.174540         2.899636        -1.946146
 H         2.590545         1.662083         0.286348
