19
Iteration:  1373charge 0 multiplicity 1
 C         0.066933         0.066744         0.395066
 C         1.156194         0.192174        -0.587754
 C         0.858216        -0.109916        -2.233747
 C         1.741200         0.954551        -3.061628
 C         1.202737         1.623965        -4.281536
 O         2.279703         0.694003        -4.387079
 C         2.692140         1.397406        -2.070582
 C         2.153486         1.190678        -0.770808
 O         2.519051        -0.136079        -0.119821
 H         0.339236         0.555220         1.219258
 H        -0.972160         0.357015         0.144869
 H        -0.090329        -1.082807         0.685933
 H         1.099890        -1.197217        -2.303642
 H        -0.248237        -0.220279        -2.451039
 H         0.291760         1.251580        -4.761903
 H         1.346017         2.695931        -4.401917
 H         3.703082         0.891976        -2.113374
 H         3.165129         2.446115        -2.211675
 H         1.987389         1.919984         0.018374
