19
Iteration:  2775
 C         0.142310        -0.054070         0.355606
 C         1.148559         0.219366        -0.677616
 C         0.722155         0.102140        -2.210847
 C         1.584454         0.977497        -3.010458
 C         1.379009         1.499354        -4.370937
 O         2.263096         0.458348        -4.178112
 C         2.579900         1.701345        -1.989167
 C         2.254487         1.150263        -0.605272
 O         2.589679        -0.189072        -0.367323
 H         0.508407        -0.716215         1.104319
 H        -0.322045         0.840958         0.737416
 H        -0.645271        -0.834929        -0.103124
 H         0.884168        -0.983203        -2.451280
 H        -0.387592         0.374316        -2.520455
 H         0.431968         1.262974        -4.877275
 H         1.836812         2.501988        -4.514955
 H         3.606088         1.638427        -2.395362
 H         2.254325         2.744160        -1.907663
 H         2.312800         2.030872         0.145987
