19
Iteration:  2580
 C         0.101834        -0.184528         0.337255
 C         1.138068         0.225913        -0.663698
 C         0.825837        -0.055439        -2.165695
 C         1.727429         0.944299        -2.969020
 C         1.323250         1.465558        -4.350771
 O         2.220289         0.473278        -4.210367
 C         2.636712         1.711787        -2.026010
 C         2.178415         1.288951        -0.694977
 O         2.494799        -0.035166        -0.277014
 H        -0.864368         0.506692         0.106573
 H         0.001278        -1.240897         0.138127
 H         0.641191         0.099641         1.329458
 H         1.115380        -1.054489        -2.386335
 H        -0.248831         0.211438        -2.402075
 H         0.343921         1.202475        -4.780145
 H         1.827663         2.394727        -4.655269
 H         3.653255         1.611470        -2.557771
 H         2.427211         2.758212        -2.298827
 H         2.330577         2.065595         0.091007
