19
Iteration:  2619
 C         0.155860        -0.016723         0.400808
 C         1.118359         0.196398        -0.728992
 C         0.857032        -0.094549        -2.178762
 C         1.707456         0.885463        -2.963482
 C         1.269638         1.464080        -4.279590
 O         2.301295         0.559847        -4.260783
 C         2.653648         1.668289        -2.030821
 C         2.116378         1.280029        -0.654265
 O         2.495667        -0.097752        -0.389737
 H        -0.761826        -0.228950        -0.035439
 H         0.278582        -0.873860         1.098532
 H        -0.076295         0.852267         1.047503
 H         1.047456        -1.123763        -2.573180
 H        -0.233518         0.001172        -2.301727
 H         0.331717         1.127809        -4.751483
 H         1.590741         2.473003        -4.557501
 H         3.661408         1.408814        -1.920700
 H         2.566357         2.738206        -2.189760
 H         2.156665         1.960980         0.192532
