19
Iteration:  4304charge 0 multiplicity 1
 C         0.295000        -0.170883         0.402052
 C         1.166683         0.243469        -0.762383
 C         0.562941         0.147490        -2.192442
 C         1.463567         1.122957        -2.927951
 C         1.563586         1.309807        -4.360230
 O         2.450200         0.344242        -3.763280
 C         2.304336         1.954536        -1.973403
 C         2.229567         1.158395        -0.728426
 O         2.558973        -0.232479        -0.769111
 H        -0.587602        -0.698280         0.019795
 H         0.852755        -0.664043         1.140162
 H        -0.087342         0.828506         0.878621
 H         0.650324        -0.870236        -2.715848
 H        -0.393734         0.580506        -2.233065
 H         0.744274         0.828711        -4.947378
 H         2.044315         2.297974        -4.606340
 H         3.259353         2.197403        -2.407962
 H         1.734636         2.939086        -1.839195
 H         2.463542         1.895727         0.128017
