19
Iteration:  4340
 C         0.365042        -0.251401         0.467579
 C         1.116949         0.175350        -0.708731
 C         0.511871         0.375669        -2.151818
 C         1.600369         1.086328        -2.976907
 C         1.696179         1.226802        -4.438562
 O         2.448571         0.223509        -3.841922
 C         2.163112         2.011929        -1.916609
 C         2.158809         1.232320        -0.690851
 O         2.584882        -0.212840        -0.882673
 H        -0.259634        -1.119852         0.332404
 H         1.042748        -0.534722         1.367806
 H        -0.279081         0.594982         0.798454
 H        -0.017633        -0.416850        -2.569111
 H        -0.339819         1.041484        -1.972616
 H         0.873359         1.064079        -5.067411
 H         2.077052         2.172737        -4.673084
 H         3.117738         2.514702        -2.000756
 H         1.425054         2.767641        -1.589670
 H         2.337749         1.768796         0.329729
