19
Iteration:   131
 C         0.229701        -0.118258         0.385465
 C         1.142122         0.222045        -0.735754
 C         0.516138         0.460185        -2.116051
 C         1.639817         1.077766        -2.911616
 C         1.583884         1.467200        -4.350395
 O         2.291809         0.259847        -3.939647
 C         2.476946         1.790997        -1.939228
 C         2.316139         1.110911        -0.635895
 O         2.433827        -0.359757        -0.817100
 H        -0.391217        -0.899048        -0.052252
 H         0.720568        -0.643693         1.378603
 H        -0.238077         0.738704         0.688806
 H         0.315688        -0.382467        -2.796753
 H        -0.343075         1.162508        -1.968958
 H         0.729174         1.212068        -4.874198
 H         2.060415         2.371984        -4.585747
 H         3.532687         1.870783        -2.109964
 H         2.184969         2.859935        -1.814816
 H         2.808034         1.484213         0.261721
