19
Iteration:  1184
 C         0.263069        -0.311464         0.363099
 C         1.169188         0.237880        -0.713817
 C         0.512975         0.465992        -2.160202
 C         1.548836         1.207024        -2.980810
 C         1.525875         1.204562        -4.468490
 O         2.340410         0.240171        -3.921963
 C         2.466820         1.939247        -1.997092
 C         2.289946         1.195444        -0.619726
 O         2.546297        -0.243283        -0.591151
 H         0.554770        -0.154838         1.519287
 H        -0.719812         0.121069         0.287043
 H         0.096710        -1.310512         0.128541
 H         0.022970        -0.337158        -2.733373
 H        -0.358121         1.085437        -1.873956
 H         0.637280         0.775415        -5.000452
 H         1.948449         2.154729        -4.928025
 H         3.517470         2.020248        -2.416796
 H         2.263293         3.043723        -1.832189
 H         2.385132         1.700227         0.368903
