19
Iteration:  3469charge 0 multiplicity 1
 C         0.205582        -0.147071         0.421252
 C         1.112491         0.182169        -0.754252
 C         0.669406         0.252066        -2.190719
 C         1.732964         1.070279        -3.014710
 C         1.332035         1.292397        -4.386897
 O         2.379674         0.344347        -3.989813
 C         2.521168         1.979160        -1.892819
 C         2.221798         1.191638        -0.605641
 O         2.495129        -0.223026        -0.672305
 H        -0.202231        -1.286868         0.403718
 H         0.537977        -0.028984         1.402467
 H        -0.727560         0.328622         0.245355
 H         0.640057        -0.763474        -2.554414
 H        -0.224495         0.920353        -2.227635
 H         0.470613         0.724681        -4.706130
 H         1.664195         2.164505        -4.972314
 H         3.539278         1.752576        -2.212008
 H         2.243447         3.027165        -1.732457
 H         2.372571         1.691271         0.411444
