19
Iteration:  2631charge 0 multiplicity 1
 C         0.073609         0.024356         0.404236
 C         1.162985         0.140844        -0.741985
 C         0.823171        -0.103916        -2.283161
 C         1.765823         0.918097        -2.996283
 C         1.193054         1.514701        -4.194177
 O         2.304494         0.469787        -4.185006
 C         2.701103         1.707701        -1.979953
 C         2.118043         1.266421        -0.692667
 O         2.525283        -0.111631        -0.404899
 H        -0.774792        -0.315288         0.038991
 H         0.567302        -0.663543         1.121116
 H        -0.073766         1.080661         0.889261
 H         1.233622        -1.110741        -2.416675
 H        -0.172230         0.100431        -2.770653
 H         0.304361         1.078996        -4.634302
 H         1.343886         2.563244        -4.366918
 H         3.675142         1.598305        -2.314460
 H         2.448723         2.746668        -2.109021
 H         1.971744         1.891361         0.191809
