19
Iteration:  2915charge 0 multiplicity 1
 C         0.240562        -0.342878         0.375728
 C         1.096783         0.319254        -0.742202
 C         0.479028         0.454145        -2.094943
 C         1.598167         1.091796        -2.882039
 C         1.594509         1.270226        -4.370163
 O         2.310869         0.177124        -3.800724
 C         2.480551         2.018827        -1.977946
 C         2.342527         1.188609        -0.675872
 O         2.470189        -0.201117        -0.873593
 H         0.032323         0.006676         1.313952
 H        -0.708746        -0.553243        -0.094082
 H         0.834777        -1.400122         0.567433
 H         0.216534        -0.488083        -2.642166
 H        -0.221942         1.271941        -2.131415
 H         0.610716         1.011407        -4.795634
 H         2.175900         1.991446        -4.990360
 H         3.503684         2.222656        -2.138446
 H         2.009168         3.097213        -1.833094
 H         2.912379         1.539521         0.324007
