19
Iteration:  3054charge 0 multiplicity 1
 C         0.172560        -0.111644         0.393156
 C         1.142755         0.208241        -0.772239
 C         0.634212         0.175822        -2.216020
 C         1.720459         1.070437        -2.980100
 C         1.251438         1.352956        -4.360386
 O         2.410967         0.436253        -4.078694
 C         2.547367         1.826117        -1.933693
 C         2.241518         1.193356        -0.561936
 O         2.516306        -0.280770        -0.556732
 H         0.595165        -0.764667         1.123760
 H         0.175641         0.910936         0.802233
 H        -0.868221        -0.283513         0.093495
 H         0.597362        -0.821148        -2.716459
 H        -0.362592         0.643850        -2.312521
 H         0.310253         0.882243        -4.626634
 H         1.566537         2.192223        -4.998900
 H         3.662899         1.890636        -2.022495
 H         2.435772         2.971035        -2.022285
 H         2.382631         1.621353         0.402691
