19
Iteration:  4829charge 0 multiplicity 1
 C         0.328524        -0.313686         0.328482
 C         1.148578         0.326188        -0.830994
 C         0.511511         0.413824        -2.194266
 C         1.632408         1.133576        -2.933353
 C         1.458248         1.322042        -4.354156
 O         2.399714         0.220741        -3.791577
 C         2.379379         1.958973        -1.874838
 C         2.254474         1.154267        -0.657595
 O         2.490317        -0.225959        -0.780520
 H         0.400133         0.325536         1.277385
 H        -0.794503        -0.594016         0.138411
 H         0.805467        -1.314976         0.441808
 H         0.565888        -0.620588        -2.610787
 H        -0.428449         0.942167        -2.179568
 H         0.512702         0.897403        -4.683436
 H         1.905835         2.073210        -5.001722
 H         3.431811         2.010763        -2.107762
 H         1.934979         3.072260        -1.894765
 H         2.719214         1.666762         0.356920
