19
Iteration:  4154charge 0 multiplicity 1
 C         0.159803        -0.038397         0.344670
 C         1.208316         0.116855        -0.753479
 C         0.786637        -0.033066        -2.248780
 C         1.631658         0.947606        -3.001233
 C         1.273100         1.455042        -4.307671
 O         2.361787         0.594895        -4.239683
 C         2.591287         1.710991        -2.005795
 C         2.209047         1.193394        -0.600313
 O         2.501439        -0.145650        -0.316310
 H         0.042788        -1.002323         0.828611
 H         0.338981         0.759009         1.087139
 H        -0.844857         0.316126        -0.151154
 H         0.798481        -1.064637        -2.581840
 H        -0.342267         0.278608        -2.039675
 H         0.351565         0.982515        -4.567230
 H         1.412989         2.484168        -4.578375
 H         3.652429         1.424711        -2.110708
 H         2.261729         2.780442        -2.077682
 H         2.058333         1.945228         0.337661
