19
Iteration:   139charge 0 multiplicity 1
 C         0.218556        -0.064563         0.359759
 C         1.126132         0.252339        -0.718844
 C         0.502688         0.375321        -2.103979
 C         1.625754         1.050688        -2.928791
 C         1.535284         1.469030        -4.353264
 O         2.316844         0.336742        -3.995358
 C         2.559645         1.795148        -1.908179
 C         2.315468         1.082797        -0.624140
 O         2.439648        -0.370028        -0.777232
 H        -0.569512        -0.743798         0.034588
 H         0.805870        -0.634753         1.205710
 H        -0.266736         0.809587         0.741422
 H         0.339020        -0.683682        -2.456221
 H        -0.476364         0.861166        -2.019857
 H         0.690916         1.325121        -5.037710
 H         2.132868         2.377189        -4.638259
 H         3.598828         1.743080        -2.229938
 H         2.123261         2.828599        -1.816799
 H         2.764101         1.431753         0.284744
