19
Iteration:  2333charge 0 multiplicity 1
 C         0.357674        -0.212270         0.413533
 C         1.148426         0.303397        -0.733449
 C         0.483347         0.319616        -2.158722
 C         1.493526         1.037372        -3.000521
 C         1.585683         1.245932        -4.446111
 O         2.517101         0.339191        -3.767101
 C         2.220255         1.964534        -1.981128
 C         2.224832         1.262735        -0.695603
 O         2.555386        -0.289965        -0.716461
 H        -0.355087         0.642347         0.713692
 H        -0.392329        -1.076705         0.099765
 H         0.895211        -0.578154         1.234463
 H         0.263897        -0.712087        -2.620731
 H        -0.516768         0.790670        -2.016086
 H         0.888985         0.757990        -5.159663
 H         2.156928         2.098286        -4.801153
 H         3.259013         2.108200        -2.354883
 H         1.730302         2.942770        -1.996296
 H         2.602563         1.501189         0.248242
