19
Iteration:  4731charge 0 multiplicity 1
 C         0.306662        -0.219482         0.515821
 C         1.095084         0.190486        -0.684507
 C         0.571515         0.135505        -2.210037
 C         1.619619         1.043835        -2.987798
 C         1.563732         1.501894        -4.476805
 O         2.314706         0.361645        -4.000800
 C         2.448295         1.859917        -1.914552
 C         2.164868         1.179146        -0.618809
 O         2.495449        -0.155483        -0.704550
 H         0.783743         0.257498         1.389743
 H        -0.764136         0.141605         0.456764
 H         0.217338        -1.310632         0.560725
 H         0.715151        -0.909016        -2.542220
 H        -0.399603         0.583815        -2.275306
 H         0.752553         1.181420        -5.079041
 H         2.130753         2.395834        -4.698453
 H         3.466882         1.661535        -2.105178
 H         2.253559         2.945864        -1.869441
 H         2.489679         1.776384         0.345439
