19
Iteration:  3566charge 0 multiplicity 1
 C         0.148210         0.010153         0.317609
 C         1.149172         0.123499        -0.719468
 C         0.828995         0.019401        -2.239857
 C         1.770250         0.991838        -2.995189
 C         1.249332         1.513462        -4.286336
 O         2.314280         0.395654        -4.147545
 C         2.574602         1.787437        -1.921904
 C         2.184017         1.207613        -0.662504
 O         2.471835        -0.170894        -0.434248
 H        -0.148116        -1.119970         0.492685
 H         0.631196         0.141397         1.231575
 H        -0.704382         0.604427         0.312835
 H         1.121759        -0.991668        -2.671318
 H        -0.206845         0.289779        -2.397054
 H         0.239094         1.157902        -4.507337
 H         1.570307         2.437475        -4.804817
 H         3.664183         1.667464        -2.172287
 H         2.202696         2.848957        -1.971320
 H         2.051291         1.844938         0.269327
