19
Iteration:   132charge 0 multiplicity 1
 C         0.234214        -0.109304         0.380792
 C         1.137301         0.226271        -0.730195
 C         0.511461         0.446169        -2.113831
 C         1.638386         1.071465        -2.911909
 C         1.577552         1.468114        -4.352701
 O         2.296155         0.272243        -3.950117
 C         2.487717         1.789909        -1.932930
 C         2.314075         1.109325        -0.635880
 O         2.434635        -0.361865        -0.810515
 H        -0.409458        -0.894176        -0.052592
 H         0.700237        -0.631954         1.309474
 H        -0.243937         0.790954         0.707504
 H         0.349291        -0.419378        -2.750201
 H        -0.374004         1.116222        -1.953635
 H         0.718620         1.230387        -4.918826
 H         2.053029         2.373804        -4.582938
 H         3.557723         1.841423        -2.114536
 H         2.170473         2.834475        -1.812274
 H         2.823547         1.475930         0.274886
