19
Iteration:  2948charge 0 multiplicity 1
 C         0.272886        -0.300231         0.332020
 C         1.141519         0.258376        -0.746163
 C         0.504010         0.531998        -2.096683
 C         1.621587         1.165925        -2.968284
 C         1.479557         1.181734        -4.379754
 O         2.405912         0.310659        -3.740511
 C         2.468294         1.956345        -2.009289
 C         2.231727         1.196901        -0.641193
 O         2.499737        -0.276180        -0.818460
 H         0.303536         0.059620         1.293193
 H        -0.739311        -0.407796        -0.009668
 H         0.605129        -1.468302         0.392313
 H        -0.030141        -0.328742        -2.625114
 H        -0.261291         1.304416        -2.140342
 H         0.520312         0.689794        -4.608806
 H         1.921684         1.851063        -5.136248
 H         3.446386         1.725922        -2.289161
 H         2.185048         2.973698        -1.811939
 H         2.776874         1.478002         0.376044
