19
Iteration:  2549charge 0 multiplicity 1
 C         0.139498        -0.086961         0.260536
 C         1.162081         0.193709        -0.707065
 C         0.804253         0.017611        -2.213784
 C         1.779944         0.926442        -2.943587
 C         1.253788         1.402447        -4.262177
 O         2.249796         0.341705        -4.187012
 C         2.581486         1.782697        -1.898459
 C         2.092119         1.356942        -0.587517
 O         2.609211        -0.047468        -0.478246
 H        -0.596611         0.836200         0.512383
 H        -0.665604        -0.800325        -0.021927
 H         0.507564        -0.419754         1.189821
 H         1.062279        -1.052156        -2.374996
 H        -0.136712         0.131299        -2.722362
 H         0.279549         1.122349        -4.733108
 H         1.714391         2.383096        -4.566965
 H         3.641063         1.578401        -2.263540
 H         2.367375         2.864646        -2.159260
 H         2.180078         1.855233         0.393038
