19
Iteration:  3836
 C         0.330358        -0.299232         0.320964
 C         1.103930         0.320111        -0.788214
 C         0.556738         0.360132        -2.187161
 C         1.654669         1.069787        -2.902256
 C         1.522660         1.177149        -4.329172
 O         2.441184         0.239788        -3.809224
 C         2.346888         1.956428        -1.930506
 C         2.148324         1.212849        -0.615849
 O         2.541596        -0.152724        -0.860319
 H        -0.503620        -0.887659         0.176557
 H         1.066197        -0.665502         1.014218
 H        -0.092784         0.534184         0.969170
 H         0.087649        -0.409713        -2.637349
 H        -0.325705         0.990396        -1.953245
 H         0.567681         0.836504        -4.686064
 H         1.915559         2.009653        -4.870702
 H         3.303781         2.374842        -2.190120
 H         1.744575         2.889155        -1.895892
 H         2.408010         1.680744         0.349506
