19
Iteration:  2174charge 0 multiplicity 1
 C         0.054586        -0.098761         0.349440
 C         1.176690         0.266930        -0.639149
 C         0.805937        -0.157746        -2.182557
 C         1.693689         0.924051        -2.983570
 C         1.305729         1.544457        -4.299915
 O         2.325811         0.510333        -4.222624
 C         2.622257         1.712648        -2.083475
 C         2.177043         1.292126        -0.616290
 O         2.485300        -0.129771        -0.395140
 H        -0.975661         0.101587        -0.009639
 H         0.197298        -1.094295         0.597930
 H         0.248187         0.543306         1.384151
 H         1.289001        -1.078040        -2.282383
 H        -0.254447        -0.101913        -2.401765
 H         0.411552         1.218693        -4.833561
 H         1.677328         2.548904        -4.504407
 H         3.639336         1.482512        -2.291498
 H         2.495500         2.790300        -2.189103
 H         2.114308         2.018664         0.262342
