19
Iteration:  3530charge 0 multiplicity 1
 C         0.107859        -0.218038         0.390904
 C         1.161755         0.243660        -0.671603
 C         0.721500         0.039416        -2.059653
 C         1.588275         0.923689        -3.006318
 C         1.554666         1.636628        -4.319935
 O         2.254226         0.344359        -4.190553
 C         2.525217         1.714615        -2.073160
 C         2.219093         1.309913        -0.653315
 O         2.495092        -0.094259        -0.456195
 H         0.268475        -1.269893         0.366919
 H         0.328012         0.227685         1.400421
 H        -0.941836         0.005506         0.059491
 H         0.884728        -1.038905        -2.391078
 H        -0.396347         0.128393        -2.357337
 H         0.600715         1.516439        -4.856540
 H         2.097530         2.555180        -4.550837
 H         3.593721         1.632747        -2.397070
 H         2.411003         2.795138        -2.000809
 H         2.471632         1.968096         0.174993
