19
Iteration:  1937charge 0 multiplicity 1
 C         0.208379        -0.066889         0.437809
 C         1.093007         0.213794        -0.681644
 C         0.624377         0.180267        -2.180161
 C         1.658228         1.017276        -3.011842
 C         1.378755         1.352911        -4.421630
 O         2.468129         0.438393        -3.963000
 C         2.422728         1.877011        -1.974976
 C         2.271624         1.119131        -0.647422
 O         2.500378        -0.260748        -0.613309
 H        -0.407065        -1.053427         0.261321
 H         0.846973        -0.220041         1.305023
 H        -0.466254         0.719964         0.507198
 H         0.631927        -0.880636        -2.424540
 H        -0.368923         0.664726        -2.361748
 H         0.505619         0.967715        -5.012167
 H         1.800876         2.297873        -4.723553
 H         3.371661         2.071729        -2.526181
 H         1.936644         2.876196        -1.895839
 H         2.623552         1.706651         0.234674
