19
Iteration:  3058charge 0 multiplicity 1
 C         0.147214        -0.100906         0.395685
 C         1.201821         0.226787        -0.748849
 C         0.642479         0.177150        -2.263705
 C         1.733722         1.061745        -2.977082
 C         1.258126         1.351242        -4.324748
 O         2.379277         0.445901        -4.082930
 C         2.548664         1.832092        -1.953518
 C         2.258452         1.189702        -0.601196
 O         2.507836        -0.274759        -0.538269
 H         0.424590        -0.883868         1.106229
 H         0.143093         0.871715         0.815140
 H        -0.926432        -0.392654         0.046957
 H         0.705631        -0.898316        -2.698535
 H        -0.347278         0.746017        -2.400206
 H         0.293994         0.814821        -4.524497
 H         1.484892         2.129294        -5.066821
 H         3.600831         1.844187        -1.951190
 H         2.386527         2.864738        -1.862677
 H         2.411775         1.630022         0.535463
