19
Iteration:    26
 C         0.247634        -0.266827         0.337745
 C         1.154203         0.247270        -0.810447
 C         0.483781         0.658296        -2.117461
 C         1.660087         1.172562        -2.947163
 C         1.626484         1.329181        -4.367171
 O         2.212948         0.168473        -3.787822
 C         2.476557         1.953739        -1.896656
 C         2.350873         1.046829        -0.628585
 O         2.468625        -0.360411        -0.849456
 H         0.162692        -1.377839         0.247764
 H         0.640873         0.041960         1.227078
 H        -0.884204         0.134646         0.307653
 H        -0.015154        -0.163097        -2.600335
 H        -0.289830         1.388178        -1.819333
 H         0.646218         0.992443        -4.896162
 H         2.185649         2.076484        -5.017000
 H         3.519312         2.222131        -2.255686
 H         2.117414         3.027583        -1.782927
 H         2.865124         1.341765         0.323597
