19
Iteration:  1124
 C         0.377074        -0.362287         0.359477
 C         1.066201         0.317685        -0.761144
 C         0.429830         0.462873        -2.092415
 C         1.620743         1.146525        -2.969977
 C         1.718722         1.285749        -4.439992
 O         2.244030         0.103604        -3.646703
 C         2.410497         1.977391        -1.968698
 C         2.299149         1.229307        -0.636201
 O         2.451989        -0.164634        -0.925750
 H         0.991867        -0.328382         1.247334
 H        -0.643842         0.128719         0.546381
 H         0.201648        -1.525967         0.180874
 H         0.164421        -0.477112        -2.602479
 H        -0.403024         1.174040        -1.940008
 H         0.867965         1.092644        -5.105699
 H         2.392933         2.004361        -4.872822
 H         3.432317         2.163715        -2.187580
 H         1.770294         2.843599        -1.872287
 H         2.866543         1.529335         0.255840
