19
Iteration:  2042charge 0 multiplicity 1
 C         0.142758        -0.180872         0.378980
 C         1.088705         0.192829        -0.760728
 C         0.799573        -0.063598        -2.227197
 C         1.739025         0.950072        -2.999225
 C         1.337342         1.545904        -4.302288
 O         2.253722         0.437493        -4.276342
 C         2.666114         1.702141        -1.997061
 C         2.126346         1.283291        -0.660623
 O         2.512834         0.016829        -0.268952
 H        -0.792503         0.351779         0.419678
 H        -0.100177        -1.220907         0.321613
 H         0.683291         0.027626         1.438386
 H         0.768003        -1.083647        -2.574513
 H        -0.260166         0.149732        -2.201880
 H         0.374346         1.241523        -4.683953
 H         1.718793         2.460579        -4.715753
 H         3.630411         1.259752        -1.954257
 H         2.772719         2.721908        -2.285975
 H         1.993140         1.993307         0.160439
