19
Iteration:  4292charge 0 multiplicity 1
 C         0.284155        -0.170160         0.409689
 C         1.072164         0.255559        -0.782799
 C         0.626923         0.156353        -2.166920
 C         1.549863         1.054969        -2.893967
 C         1.447900         1.303239        -4.297967
 O         2.475482         0.385121        -3.857897
 C         2.391870         2.002780        -2.036927
 C         2.265372         1.212941        -0.698236
 O         2.490135        -0.213266        -0.736511
 H        -0.490238        -0.878051        -0.000494
 H         0.757504        -0.790833         1.100995
 H        -0.326207         0.656969         0.931189
 H         0.761896        -0.963119        -2.447413
 H        -0.402412         0.283591        -2.308572
 H         0.769072         0.812965        -5.058267
 H         1.856519         2.224386        -4.837881
 H         3.403585         2.008415        -2.461190
 H         1.980664         3.036167        -1.792819
 H         2.435103         1.396257         0.374144
