19
Iteration:  1775
 C         0.341514        -0.123770         0.500450
 C         1.129878         0.204163        -0.710750
 C         0.506372         0.287525        -2.182136
 C         1.559818         1.084365        -2.953311
 C         1.654021         1.387118        -4.452964
 O         2.394433         0.331737        -3.959887
 C         2.339145         1.911241        -1.945692
 C         2.300610         1.120623        -0.673114
 O         2.412318        -0.343387        -0.703086
 H         0.719318         0.448458         1.416338
 H        -0.732770         0.247965         0.540894
 H         0.457924        -1.096641         0.688701
 H         0.175375        -0.563355        -2.790118
 H        -0.368942         0.902679        -1.939299
 H         0.829037         1.118106        -5.175445
 H         2.137472         2.336367        -4.728545
 H         3.306607         2.198347        -2.307719
 H         1.783339         2.828975        -1.933687
 H         2.658789         1.616335         0.225772
