19
Iteration:  2850
 C         0.271887        -0.150823         0.526584
 C         1.080815         0.235624        -0.673049
 C         0.618059         0.304418        -2.167235
 C         1.591257         1.052089        -2.987327
 C         1.536607         1.412132        -4.392282
 O         2.369918         0.383026        -3.966584
 C         2.472342         1.843717        -1.992847
 C         2.294333         1.120479        -0.710988
 O         2.391696        -0.273562        -0.703285
 H         0.464252         0.452436         1.343984
 H        -0.791085        -0.148178         0.311946
 H         0.623789        -1.254668         0.865220
 H         0.449606        -0.665316        -2.666439
 H        -0.348660         0.694797        -2.120738
 H         0.854804         0.989202        -5.131857
 H         2.048518         2.376110        -4.601669
 H         3.510373         1.826263        -2.297210
 H         1.829354         2.820280        -2.103983
 H         2.637193         1.662885         0.264317
