19
Iteration:  2754
 C         0.118619        -0.122232         0.464583
 C         1.102932         0.232106        -0.695501
 C         0.750600        -0.040911        -2.096189
 C         1.723343         0.933094        -3.066912
 C         1.383310         1.620580        -4.291631
 O         2.268986         0.435230        -4.246634
 C         2.619174         1.755489        -2.080260
 C         2.240923         1.287156        -0.608788
 O         2.428098        -0.176314        -0.429629
 H         0.663230        -0.903510         1.046627
 H        -0.186124         0.767551         0.996671
 H        -0.785506        -0.748465         0.019793
 H         0.962440        -1.077300        -2.493422
 H        -0.426823         0.097666        -2.364439
 H         0.458365         1.316572        -4.772846
 H         1.940621         2.548715        -4.539801
 H         3.660586         1.365213        -2.254686
 H         2.487656         2.822913        -2.142799
 H         2.650974         2.007628         0.202502
