19
Iteration:  3258
 C         0.254154        -0.136758         0.534659
 C         1.086316         0.268421        -0.692497
 C         0.548391         0.071987        -2.200566
 C         1.587718         0.927993        -2.987283
 C         1.469970         1.442209        -4.372430
 O         2.498443         0.457952        -4.026988
 C         2.465245         1.804291        -2.033362
 C         2.256548         1.235012        -0.705537
 O         2.428306        -0.168789        -0.628637
 H         0.428279        -1.295729         0.587869
 H         0.831163         0.083323         1.532237
 H        -0.650472         0.256661         0.580766
 H         0.562177        -1.038464        -2.450583
 H        -0.567376         0.482572        -2.135153
 H         0.656302         1.051239        -4.985244
 H         1.883710         2.429926        -4.639816
 H         3.555453         1.743954        -2.244248
 H         1.979018         2.719686        -2.050804
 H         2.325591         1.904814         0.155911
