19
Iteration:  5000
 C         0.246818        -0.142575         0.458640
 C         1.130590         0.222515        -0.733505
 C         0.752884         0.032535        -2.220382
 C         1.614053         0.947202        -2.971494
 C         1.458388         1.551164        -4.342017
 O         2.271478         0.425912        -4.190974
 C         2.563223         1.765730        -1.898119
 C         2.086217         1.253815        -0.612184
 O         2.470486        -0.170320        -0.567669
 H         0.701029         0.257736         1.323631
 H        -0.810431         0.270392         0.512932
 H         0.370285        -1.274508         0.646934
 H         1.021523        -0.977479        -2.522414
 H        -0.352550         0.208100        -2.484733
 H         0.429197         1.353765        -4.785680
 H         2.034482         2.532620        -4.523637
 H         3.689797         1.767020        -2.163803
 H         2.265711         2.774400        -2.052723
 H         2.397428         1.753519         0.391782
