19
Iteration:  4285
 C         0.218306        -0.190739         0.388068
 C         1.110291         0.256478        -0.715579
 C         0.617306         0.131632        -2.166073
 C         1.652630         1.023734        -2.921166
 C         1.421044         1.295559        -4.378404
 O         2.469445         0.412423        -3.894656
 C         2.401779         1.984972        -2.000180
 C         2.255552         1.208505        -0.640927
 O         2.451169        -0.203126        -0.742759
 H        -0.486710        -0.959135         0.138691
 H         0.917028        -0.719004         1.101306
 H        -0.297972         0.612530         0.983290
 H         0.869100        -0.873230        -2.476995
 H        -0.476758         0.332126        -2.289134
 H         0.551715         0.873318        -4.857285
 H         1.714917         2.250949        -4.748172
 H         3.414369         2.043051        -2.373667
 H         2.152682         3.059384        -1.980278
 H         2.640786         1.830052         0.292957
