19
Iteration:  3562
 C         0.134513        -0.002651         0.338761
 C         1.141798         0.124204        -0.716624
 C         0.831686         0.016518        -2.250480
 C         1.730961         0.961196        -2.985052
 C         1.305804         1.545051        -4.315812
 O         2.275032         0.370082        -4.161671
 C         2.584123         1.799564        -1.928757
 C         2.162241         1.245523        -0.625198
 O         2.514146        -0.170719        -0.440222
 H        -0.146103        -0.964937         0.450085
 H         0.790758         0.142284         1.276067
 H        -0.946326         0.410227         0.260859
 H         1.171863        -0.972020        -2.626776
 H        -0.250606         0.325290        -2.508997
 H         0.315540         1.154893        -4.561020
 H         1.594187         2.490468        -4.758693
 H         3.647205         1.669597        -2.152960
 H         2.237168         2.814794        -1.862820
 H         2.119196         1.784225         0.293823
