19
Iteration:    99charge 0 multiplicity 1
 C         0.333205        -0.336594         0.334749
 C         1.068973         0.281924        -0.800652
 C         0.355335         0.709782        -2.035133
 C         1.638497         1.206795        -2.934594
 C         1.708132         1.264308        -4.448837
 O         2.211583         0.152486        -3.723571
 C         2.555335         1.937403        -1.871378
 C         2.312902         1.060581        -0.637790
 O         2.443721        -0.311933        -0.960931
 H         0.124401        -1.383355         0.067005
 H         0.979907        -0.219941         1.263382
 H        -0.625465         0.079692         0.582163
 H        -0.135308         0.019488        -2.690896
 H        -0.399344         1.502498        -1.873790
 H         0.872925         0.964558        -4.998211
 H         2.345774         1.979727        -4.912187
 H         3.619045         2.068150        -2.021712
 H         2.197356         2.948745        -1.686010
 H         2.710379         1.409741         0.324301
