19
Iteration:  4142
 C         0.083524        -0.010707         0.327590
 C         1.177706         0.106679        -0.681298
 C         0.826908        -0.064283        -2.131605
 C         1.690213         0.963389        -3.010285
 C         1.195431         1.506317        -4.382444
 O         2.354552         0.591917        -4.197449
 C         2.557059         1.692032        -2.002800
 C         2.141707         1.233362        -0.632299
 O         2.601539        -0.202970        -0.327635
 H        -0.151190        -1.018353         0.691377
 H         0.416780         0.551818         1.179447
 H        -0.926816         0.438538        -0.073699
 H         0.982314        -1.105761        -2.527224
 H        -0.276039         0.224189        -2.449422
 H         0.448966         1.119454        -5.022023
 H         1.516437         2.476225        -4.708834
 H         3.548757         1.507731        -2.381648
 H         2.633490         2.810304        -2.080185
 H         2.295298         1.970695         0.319792
