19
Iteration:  3288
 C         0.308765        -0.266658         0.505958
 C         1.104098         0.251217        -0.730587
 C         0.600603         0.281940        -2.170460
 C         1.617088         1.026922        -2.979113
 C         1.500505         1.379483        -4.404409
 O         2.404999         0.264891        -4.001581
 C         2.444743         1.888906        -1.947320
 C         2.143385         1.303879        -0.668083
 O         2.485398        -0.180155        -0.692448
 H         0.691460        -1.280522         0.622950
 H         0.437938         0.170784         1.527145
 H        -0.830304        -0.174693         0.456202
 H         0.418017        -0.772027        -2.537971
 H        -0.410567         0.654487        -2.257415
 H         0.564549         1.129524        -4.916062
 H         2.035214         2.245553        -4.861827
 H         3.562313         1.847263        -2.012344
 H         2.232991         2.988663        -2.161918
 H         2.273405         1.764703         0.351008
