19
Iteration:   675
 C         0.171397         0.018240         0.429202
 C         1.117397         0.200447        -0.715814
 C         0.645318         0.140253        -2.199969
 C         1.669852         0.967861        -2.979418
 C         1.434129         1.573772        -4.297818
 O         2.330276         0.409152        -4.237661
 C         2.598236         1.734034        -1.944363
 C         2.218110         1.145126        -0.583258
 O         2.449126        -0.304005        -0.541789
 H        -0.813153         0.369053         0.321635
 H         0.077260        -1.147942         0.551425
 H         0.630081         0.523656         1.379252
 H         0.638083        -0.903623        -2.476321
 H        -0.361731         0.550682        -2.130823
 H         0.425821         1.374172        -4.750948
 H         1.820817         2.614294        -4.585685
 H         3.616366         1.502725        -2.186426
 H         2.643092         2.812705        -2.165170
 H         2.448547         1.578264         0.386460
