19
Iteration:   610charge 0 multiplicity 1
 C         0.206982        -0.259298         0.361242
 C         1.117395         0.229324        -0.795436
 C         0.461944         0.619163        -2.101929
 C         1.660997         1.188956        -2.984429
 C         1.637107         1.305423        -4.439749
 O         2.210003         0.165519        -3.753653
 C         2.490700         1.891164        -1.933445
 C         2.342062         1.060580        -0.603037
 O         2.520814        -0.259117        -0.849060
 H        -0.698881        -0.694054         0.102993
 H         0.796956        -1.257619         0.646696
 H         0.276637         0.459473         1.228121
 H        -0.070654        -0.127820        -2.675574
 H        -0.262335         1.419487        -1.867667
 H         0.626429         1.065253        -4.906045
 H         2.298757         2.040644        -5.023022
 H         3.500035         2.129554        -2.186825
 H         1.993284         2.903572        -1.689596
 H         2.688481         1.444715         0.355813
