19
Iteration:  2963
 C         0.252039        -0.326967         0.390964
 C         1.109652         0.181486        -0.809277
 C         0.492038         0.470238        -2.159469
 C         1.605400         1.153725        -2.898607
 C         1.483737         1.212116        -4.409153
 O         2.375878         0.249289        -3.807710
 C         2.523027         1.977132        -1.907725
 C         2.278017         1.168911        -0.686683
 O         2.503679        -0.209598        -0.802513
 H         0.620638         0.266949         1.348021
 H        -0.809465         0.022476         0.260491
 H         0.375097        -1.357512         0.634074
 H         0.112076        -0.353453        -2.735788
 H        -0.237596         1.206850        -1.816226
 H         0.662736         0.790195        -5.024549
 H         1.947394         2.096571        -4.834888
 H         3.649103         2.135109        -2.263110
 H         2.147075         3.125964        -1.845594
 H         2.385429         1.701739         0.181110
