19
Iteration:  3399charge 0 multiplicity 1
 C         0.437271        -0.164504         0.575109
 C         1.062490         0.205908        -0.771068
 C         0.468181         0.305861        -2.258237
 C         1.556695         1.095153        -3.003105
 C         1.640912         1.331000        -4.415757
 O         2.461925         0.204156        -3.812386
 C         2.271568         1.992952        -1.910457
 C         2.157726         1.164725        -0.628387
 O         2.505273        -0.208248        -0.854657
 H        -0.349205        -0.945367         0.391451
 H         1.175258        -0.617172         1.334546
 H        -0.002307         0.768410         0.943972
 H         0.364099        -0.592285        -2.907741
 H        -0.324800         0.948930        -2.274634
 H         0.826296         0.949818        -5.061697
 H         2.181274         2.202482        -4.787993
 H         3.384701         2.014156        -2.016355
 H         1.709256         2.942208        -1.980844
 H         2.273050         1.533157         0.353891
