19
Iteration:   713charge 0 multiplicity 1
 C        -0.010487         0.149205         0.363935
 C         1.136269         0.222510        -0.732183
 C         0.875917        -0.097280        -2.244297
 C         1.623859         0.947579        -3.016315
 C         1.269694         1.686782        -4.189533
 O         2.263883         0.514523        -4.286869
 C         2.667808         1.666701        -1.998135
 C         2.318671         1.130002        -0.619345
 O         2.515666        -0.343133        -0.324673
 H        -0.397478         1.264466         0.376660
 H        -0.787072        -0.520041         0.177092
 H         0.338210        -0.114963         1.302186
 H         1.238129        -1.070095        -2.662874
 H        -0.200539        -0.103768        -2.501578
 H         0.392696         1.279378        -4.653449
 H         1.579043         2.650674        -4.475575
 H         3.651522         1.173791        -2.285712
 H         2.504749         2.752982        -2.124571
 H         2.478390         1.794657         0.247054
