19
Iteration:  2725charge 0 multiplicity 1
 C         0.145407        -0.051943         0.422574
 C         1.049500         0.226185        -0.798385
 C         0.786405        -0.047564        -2.269607
 C         1.766819         0.913877        -2.993410
 C         1.301667         1.551894        -4.181211
 O         2.258917         0.454954        -4.222789
 C         2.634376         1.644778        -1.966928
 C         2.154731         1.263659        -0.585493
 O         2.504654        -0.086954        -0.478177
 H         0.589361        -1.034434         0.944371
 H         0.109224         0.794074         1.150320
 H        -0.789175        -0.414647         0.253213
 H         1.027607        -1.061208        -2.601200
 H        -0.165134         0.335167        -2.484221
 H         0.282253         1.271280        -4.484256
 H         1.618405         2.519140        -4.579858
 H         3.696883         1.254938        -2.108917
 H         2.828484         2.736725        -2.146112
 H         2.363698         2.023379         0.119726
