19
Iteration:  1217
 C         0.236161        -0.060566         0.471756
 C         1.165080         0.267707        -0.707092
 C         0.580280         0.115425        -2.232143
 C         1.645397         0.956983        -2.937164
 C         1.545794         1.462499        -4.289715
 O         2.310117         0.295477        -4.017240
 C         2.441395         1.885291        -2.001513
 C         2.242883         1.197338        -0.619440
 O         2.502693        -0.219372        -0.721141
 H         0.624556        -0.008626         1.598962
 H        -0.551815         0.664140         0.328635
 H        -0.150612        -1.030720         0.258215
 H         0.658257        -0.943993        -2.537090
 H        -0.439458         0.480411        -2.196960
 H         0.601143         1.234380        -4.834328
 H         2.086984         2.383307        -4.640774
 H         3.501383         1.939628        -2.366580
 H         1.814728         2.796614        -1.984673
 H         2.419338         1.684291         0.350577
