19
Iteration:  2819
 C         0.137162        -0.051734         0.348064
 C         1.125295         0.285623        -0.738700
 C         0.637845         0.203732        -2.176360
 C         1.723583         1.004706        -2.912185
 C         1.309474         1.382242        -4.297249
 O         2.372162         0.392789        -4.075407
 C         2.544403         1.826361        -1.913339
 C         2.269720         1.109897        -0.624435
 O         2.532771        -0.253067        -0.679149
 H         0.491742         0.178140         1.358258
 H        -0.751887         0.544733         0.270211
 H        -0.118086        -1.186196         0.542225
 H         0.878775        -0.813205        -2.533583
 H        -0.433104         0.559697        -2.177765
 H         0.476862         0.900419        -4.830120
 H         1.591730         2.389208        -4.679114
 H         3.630341         1.976629        -2.135783
 H         2.111307         2.834621        -1.986007
 H         2.529433         1.566399         0.391198
