19
Iteration:  2312charge 0 multiplicity 1
 C         0.293773        -0.076118         0.471673
 C         1.106536         0.128811        -0.738161
 C         0.588913         0.209667        -2.181080
 C         1.619636         0.989192        -2.952524
 C         1.521767         1.272916        -4.389655
 O         2.545893         0.380777        -3.875690
 C         2.288023         1.974076        -1.972589
 C         2.176697         1.176954        -0.688568
 O         2.496370        -0.203419        -0.782757
 H        -0.158937         0.903472         0.771368
 H        -0.601517        -0.864995         0.491574
 H         1.013189        -0.484375         1.210818
 H         0.241713        -0.807327        -2.581832
 H        -0.329244         0.822016        -2.042827
 H         0.720344         0.746818        -4.958283
 H         1.888958         2.221736        -4.807561
 H         3.245576         2.366055        -2.377780
 H         1.689979         2.868347        -1.677864
 H         2.330052         1.598084         0.295253
