19
Iteration:   216
 C        -0.033270         0.165657         0.209260
 C         1.144726         0.194663        -0.719758
 C         0.880078        -0.054506        -2.223419
 C         1.776165         0.893617        -2.966584
 C         1.228769         1.765760        -4.048432
 O         2.140272         0.638748        -4.319138
 C         2.830961         1.423394        -2.043498
 C         2.307181         1.083359        -0.636400
 O         2.444565        -0.323687        -0.291752
 H        -0.771170        -0.592470         0.150830
 H         0.327455         0.474893         1.299018
 H        -0.591003         0.986991        -0.152783
 H         1.264527        -1.078161        -2.490831
 H        -0.167842        -0.085964        -2.511357
 H         0.185964         1.601632        -4.352318
 H         1.657610         2.796883        -4.196046
 H         3.793510         1.068778        -2.359294
 H         2.850186         2.573937        -2.165002
 H         2.325789         1.863078         0.082767
