19
Iteration:  3643charge 0 multiplicity 1
 C         0.198753         0.004063         0.319756
 C         1.135404         0.172643        -0.797714
 C         0.865408        -0.069532        -2.260363
 C         1.686063         0.956838        -2.979505
 C         1.321728         1.558466        -4.252730
 O         2.295676         0.369600        -4.155562
 C         2.545121         1.769157        -1.954561
 C         2.154062         1.201044        -0.619033
 O         2.469366        -0.129286        -0.385816
 H        -0.437452        -0.896361         0.280189
 H         0.642359         0.039951         1.243438
 H        -0.323042         0.854904         0.385216
 H         1.039044        -1.152454        -2.594853
 H        -0.198554         0.099776        -2.512647
 H         0.306082         1.365843        -4.629613
 H         1.826888         2.436655        -4.681208
 H         3.564098         1.914411        -2.378986
 H         2.129263         2.819719        -1.836150
 H         2.183617         1.874947         0.300350
