19
Iteration:  4241
 C         0.220349        -0.246770         0.332467
 C         1.177289         0.161986        -0.781231
 C         0.674127         0.137904        -2.218287
 C         1.644505         1.001555        -2.974655
 C         1.390855         1.438985        -4.331410
 O         2.351568         0.369609        -4.141981
 C         2.509305         1.825610        -1.990735
 C         2.142168         1.292016        -0.661527
 O         2.560598        -0.150593        -0.359793
 H        -0.119233        -1.251891         0.473318
 H         0.648116         0.012365         1.325689
 H        -0.707272         0.425681         0.163109
 H         0.272572        -0.803374        -2.617265
 H        -0.257107         0.832829        -2.127260
 H         0.458137         1.182577        -4.781147
 H         1.745320         2.359388        -4.752787
 H         3.577692         1.945587        -2.122078
 H         2.182294         2.900190        -2.019497
 H         2.359319         1.870384         0.372906
