19
Iteration:  3332
 C         0.232873        -0.312258         0.225476
 C         1.202085         0.222547        -0.678031
 C         0.538305         0.395973        -2.089859
 C         1.607334         1.120070        -2.925708
 C         1.509010         1.235555        -4.414822
 O         2.320907         0.195414        -3.813403
 C         2.416137         1.987337        -2.049285
 C         2.236063         1.256750        -0.596962
 O         2.609750        -0.161808        -0.705263
 H         0.413563        -1.344923         0.066591
 H         0.182766        -0.186989         1.340899
 H        -0.722353         0.060873        -0.196723
 H         0.090324        -0.549002        -2.530539
 H        -0.302677         0.987360        -1.843213
 H         0.597240         0.908164        -4.919984
 H         2.076020         2.048595        -4.922802
 H         3.393788         2.244010        -2.528585
 H         1.839388         2.915143        -1.729549
 H         2.498337         1.822053         0.300886
