19
Iteration:  1564charge 0 multiplicity 1
 C        -0.095603         0.122367         0.103331
 C         1.248766         0.198271        -0.688288
 C         1.034575        -0.137059        -2.231443
 C         1.708795         0.937557        -2.929089
 C         1.121407         1.639131        -4.085634
 O         2.053287         0.567737        -4.381001
 C         2.805861         1.512989        -2.085550
 C         2.301738         1.266615        -0.567087
 O         2.526940        -0.226813        -0.184611
 H        -0.240453         0.958682         0.913159
 H        -0.872456         0.229628        -0.619309
 H        -0.154325        -0.925428         0.505384
 H         1.583074        -1.069094        -2.220836
 H         0.013033        -0.462299        -2.310440
 H         0.082234         1.487605        -4.463277
 H         1.535580         2.643061        -4.204673
 H         3.741455         0.927954        -2.231528
 H         3.103128         2.511998        -2.360014
 H         2.265056         2.087532         0.232330
