19
Iteration:   366charge 0 multiplicity 1
 C        -0.174692         0.425788        -0.053997
 C         1.259613         0.136761        -0.820124
 C         1.217425        -0.277182        -2.284490
 C         1.873706         0.897723        -3.029933
 C         0.973992         1.762486        -3.791422
 O         1.866846         0.754892        -4.374773
 C         2.998000         1.235121        -2.067489
 C         2.386250         1.128288        -0.600717
 O         2.387746        -0.289152        -0.039330
 H        -0.830948        -0.406805        -0.355269
 H        -0.129495         0.410450         0.937027
 H        -0.738220         1.473830        -0.301587
 H         1.931499        -1.127511        -2.336417
 H         0.267019        -0.510325        -2.702141
 H        -0.104258         1.518014        -3.859265
 H         1.262405         2.791736        -4.151004
 H         3.941713         0.749847        -2.368853
 H         3.364785         2.262174        -2.108057
 H         2.389998         1.998232         0.040553
