19
Iteration:  4908charge 0 multiplicity 1
 C         0.227013        -0.229469         0.431640
 C         1.099408         0.208132        -0.700024
 C         0.661890         0.224877        -2.172353
 C         1.688876         1.087485        -2.940345
 C         1.402662         1.400609        -4.421315
 O         2.400695         0.321441        -3.939692
 C         2.447442         1.938945        -1.976891
 C         2.202394         1.197704        -0.625799
 O         2.483253        -0.220997        -0.705916
 H         0.932835        -0.556934         1.304579
 H        -0.399114         0.597293         0.726316
 H        -0.293143        -1.153018         0.174759
 H         0.643163        -0.795241        -2.585094
 H        -0.261050         0.630574        -2.448339
 H         0.430124         1.063408        -4.815887
 H         1.853058         2.244675        -4.921609
 H         3.519230         1.978623        -2.214609
 H         2.047808         3.016896        -1.935240
 H         2.479398         1.743838         0.288245
