19
Iteration:  4112charge 0 multiplicity 1
 C         0.051787        -0.065420         0.271224
 C         1.147026         0.234582        -0.744854
 C         0.887265        -0.142811        -2.143581
 C         1.672893         0.944909        -2.917113
 C         1.268203         1.507957        -4.221715
 O         2.283782         0.483500        -4.242353
 C         2.599002         1.741439        -2.016736
 C         2.250357         1.264642        -0.584119
 O         2.483331        -0.138722        -0.421537
 H        -0.650346        -0.887425         0.162701
 H         0.642358        -0.028757         1.230805
 H        -0.610461         0.814284         0.475611
 H         1.534933        -0.928636        -2.301755
 H        -0.118957        -0.187620        -2.689724
 H         0.298342         1.215186        -4.672191
 H         1.695089         2.480754        -4.531062
 H         3.596744         1.740878        -2.611240
 H         2.173935         2.798247        -2.054806
 H         2.495355         1.961832         0.280723
