19
Iteration:  4425charge 0 multiplicity 1
 C         0.279351        -0.349454         0.265299
 C         1.180218         0.234184        -0.732248
 C         0.600789         0.317328        -2.069585
 C         1.721803         1.027838        -2.974479
 C         1.462861         1.362196        -4.352711
 O         2.320698         0.197078        -3.983830
 C         2.330188         1.973823        -2.015375
 C         2.170067         1.218227        -0.603709
 O         2.597163        -0.115034        -0.574325
 H         0.609020        -1.293334         0.549332
 H         0.327616         0.368246         1.056246
 H        -0.760562        -0.308177        -0.134684
 H         0.290883        -0.528567        -2.712111
 H        -0.071123         1.139936        -1.993038
 H         0.525928         0.984735        -4.817026
 H         1.978373         2.158908        -4.926844
 H         3.307817         2.325148        -2.214947
 H         1.648649         2.888371        -2.034101
 H         2.371562         1.852909         0.338251
