19
Iteration:  2031charge 0 multiplicity 1
 C         0.103688        -0.193475         0.412622
 C         1.150551         0.210853        -0.640884
 C         0.805068        -0.058133        -2.148525
 C         1.746656         0.961297        -3.041313
 C         1.350954         1.535352        -4.352544
 O         2.260438         0.450749        -4.259458
 C         2.654803         1.663423        -2.066973
 C         2.051423         1.363510        -0.613181
 O         2.491860        -0.067985        -0.358815
 H        -0.874088         0.187904         0.193939
 H         0.142595        -1.279549         0.459429
 H         0.524716         0.224032         1.482393
 H         1.140217        -0.962395        -2.614883
 H        -0.160510         0.305284        -2.446630
 H         0.327100         1.428342        -4.663791
 H         1.875769         2.400465        -4.700911
 H         3.656747         1.336401        -2.131018
 H         2.654960         2.729647        -2.139335
 H         2.164208         2.035124         0.244725
