19
Iteration:  4546
 C         0.033327        -0.142162         0.177303
 C         1.228821         0.268403        -0.735617
 C         0.901437        -0.063808        -2.146406
 C         1.641618         0.996506        -2.940008
 C         1.262605         1.463039        -4.289696
 O         2.222764         0.421675        -4.128811
 C         2.551651         1.818215        -1.987705
 C         2.278894         1.252347        -0.656935
 O         2.586718        -0.109237        -0.348397
 H        -0.438242        -0.886118        -0.374168
 H         0.338811        -0.697325         1.096266
 H        -0.638914         0.658855         0.383901
 H         1.210682        -1.118984        -2.416664
 H        -0.216778        -0.029266        -2.264695
 H         0.365582         1.000540        -4.696943
 H         1.576983         2.428236        -4.677388
 H         3.547935         2.060765        -2.294706
 H         2.076399         2.832212        -2.028207
 H         2.301976         1.965272         0.245805
