19
Iteration:  1423
 C        -0.058310         0.148321         0.166005
 C         1.131272         0.225407        -0.799800
 C         1.114988        -0.152310        -2.196460
 C         1.867962         0.869933        -3.004699
 C         1.081279         1.635627        -3.960278
 O         2.092599         0.499211        -4.295756
 C         2.792852         1.623323        -2.020457
 C         2.256200         1.184743        -0.674237
 O         2.469455        -0.189146        -0.317862
 H         0.183587         0.616776         1.324416
 H        -0.802349         0.930863        -0.164167
 H        -0.586130        -0.719190         0.211734
 H         1.558106        -1.139964        -2.243045
 H         0.104198        -0.453068        -2.456278
 H        -0.001192         1.391319        -4.190742
 H         1.422801         2.576184        -4.394483
 H         3.865512         1.423613        -1.996231
 H         2.602598         2.611248        -2.353903
 H         2.274294         1.699188         0.338987
