19
Iteration:  3879
 C         0.242092        -0.346178         0.397072
 C         1.160614         0.228422        -0.698755
 C         0.542964         0.346720        -2.068175
 C         1.486626         1.179006        -2.985491
 C         1.673443         1.262753        -4.484059
 O         2.310793         0.261866        -3.824065
 C         2.361803         1.886553        -2.001034
 C         2.260455         1.278083        -0.639936
 O         2.583687        -0.129410        -0.748827
 H         0.015304        -1.204941        -0.203326
 H         0.773488        -0.718187         1.297547
 H        -0.747000         0.108784         0.723041
 H         0.382021        -0.600357        -2.449815
 H        -0.558654         0.816902        -2.070405
 H         0.879932         0.884441        -5.103253
 H         2.238722         2.073779        -4.924182
 H         3.384906         1.985282        -2.373063
 H         2.030331         2.990371        -1.892504
 H         2.406174         1.841592         0.312001
