19
Iteration:  2965charge 0 multiplicity 1
 C         0.254370        -0.323538         0.397667
 C         1.108229         0.178891        -0.829611
 C         0.495714         0.460018        -2.139185
 C         1.598438         1.142131        -2.917085
 C         1.491362         1.232950        -4.408518
 O         2.370668         0.238862        -3.815568
 C         2.516379         1.986465        -1.904877
 C         2.292902         1.168062        -0.677766
 O         2.502407        -0.204876        -0.798874
 H         0.651824         0.239516         1.348932
 H        -0.800003         0.049817         0.306398
 H         0.322360        -1.305645         0.664695
 H         0.171489        -0.341310        -2.798790
 H        -0.308172         1.203341        -1.848955
 H         0.694027         0.800492        -5.016482
 H         1.970809         2.113423        -4.839295
 H         3.644787         2.097056        -2.197661
 H         2.092887         3.063508        -1.861284
 H         2.354679         1.705884         0.206053
