19
Iteration:  3942charge 0 multiplicity 1
 C         0.163924        -0.172861         0.479135
 C         1.114958         0.228451        -0.638907
 C         0.589688         0.166987        -2.163587
 C         1.630439         1.039580        -3.001169
 C         1.474613         1.359256        -4.473050
 O         2.421246         0.413564        -4.057927
 C         2.451990         1.922946        -1.996419
 C         2.281491         1.194944        -0.548909
 O         2.484716        -0.230881        -0.673603
 H         0.553724        -1.197823         0.746149
 H         0.469712         0.393253         1.461761
 H        -0.866319        -0.049873         0.407950
 H         0.619402        -0.929263        -2.388923
 H        -0.365669         0.600916        -2.173686
 H         0.649260         0.917580        -5.057985
 H         1.753060         2.355057        -4.874551
 H         3.439430         1.841791        -2.426128
 H         2.035439         2.912602        -1.841813
 H         2.583908         1.680766         0.343272
