19
Iteration:  1959charge 0 multiplicity 1
 C         0.063020         0.025575         0.467500
 C         1.212060         0.119253        -0.732495
 C         0.709184         0.107039        -2.171483
 C         1.633727         1.058623        -2.995978
 C         1.392634         1.316674        -4.381053
 O         2.432134         0.462966        -4.183779
 C         2.425032         1.882849        -1.887337
 C         2.207180         1.144740        -0.581344
 O         2.591897        -0.253505        -0.597109
 H        -0.860214        -0.571198         0.043622
 H         0.525763        -0.565148         1.283910
 H        -0.258654         0.960987         0.757686
 H         0.576382        -0.952742        -2.324432
 H        -0.260274         0.665699        -2.063078
 H         0.475484         0.788825        -4.799336
 H         1.614384         2.250806        -4.900790
 H         3.514992         1.987869        -2.214549
 H         1.983390         2.925015        -1.924666
 H         2.452349         1.617323         0.397668
