19
Iteration:   976charge 0 multiplicity 1
 C         0.089806        -0.121750         0.348519
 C         1.093515         0.310475        -0.726031
 C         0.839875        -0.005221        -2.228445
 C         1.752721         0.952963        -3.016255
 C         1.330209         1.676196        -4.151381
 O         2.164202         0.385910        -4.327801
 C         2.746487         1.583799        -2.028181
 C         2.207226         1.241279        -0.625885
 O         2.448633        -0.127776        -0.335783
 H         0.448589         0.451871         1.341875
 H        -0.859485         0.304371         0.084491
 H        -0.078688        -1.176401         0.435182
 H         1.158512        -1.045284        -2.352938
 H        -0.227067         0.081642        -2.490132
 H         0.254387         1.739393        -4.322444
 H         1.940914         2.551456        -4.377910
 H         3.627558         0.925021        -2.100657
 H         2.862039         2.640320        -2.187778
 H         2.194852         2.065173         0.097758
