19
Iteration:   432charge 0 multiplicity 1
 C         0.043230         0.122404         0.374708
 C         1.099826         0.213752        -0.743154
 C         0.818163        -0.071539        -2.215340
 C         1.769281         0.885856        -2.979150
 C         1.253075         1.712464        -4.128920
 O         2.177354         0.667414        -4.372616
 C         2.915993         1.403169        -1.999168
 C         2.217012         1.191436        -0.708945
 O         2.430239        -0.311199        -0.298945
 H        -0.460950        -0.822053         0.428270
 H         0.618860         0.356147         1.191875
 H        -0.805290         0.968059         0.281854
 H         0.949674        -1.142157        -2.475357
 H        -0.222268         0.183516        -2.346890
 H         0.236622         1.525239        -4.571660
 H         1.523825         2.798714        -4.151738
 H         3.871396         0.887060        -2.265019
 H         3.118541         2.485584        -2.208836
 H         1.898294         1.887852         0.041614
