19
Iteration:   898
 C        -0.054798         0.360333         0.021436
 C         1.252674         0.141525        -0.756894
 C         1.130965        -0.371727        -2.190808
 C         1.761293         0.881622        -3.035110
 C         0.980723         1.741362        -3.953305
 O         2.117350         0.641778        -4.365250
 C         2.768074         1.467272        -2.009306
 C         2.264877         1.139959        -0.670362
 O         2.476583        -0.206412        -0.087950
 H         0.121997         0.780800         1.119263
 H        -0.677623         1.163101        -0.457640
 H        -0.543655        -0.552890         0.067487
 H         1.790555        -1.237024        -2.309086
 H         0.169714        -0.743180        -2.524576
 H         0.100762         1.315372        -4.452727
 H         1.265675         2.746083        -4.229300
 H         3.710489         1.022136        -2.295310
 H         2.899270         2.523541        -2.100690
 H         2.260540         2.011827        -0.043199
