19
Iteration:  2665charge 0 multiplicity 1
 C         0.058791         0.036390         0.277594
 C         1.147459         0.239613        -0.693091
 C         0.906520        -0.078858        -2.165272
 C         1.717179         0.887663        -2.941000
 C         1.203222         1.529437        -4.298791
 O         2.258193         0.491332        -4.272776
 C         2.620255         1.744572        -1.986647
 C         2.269644         1.257858        -0.577854
 O         2.518412        -0.236773        -0.390469
 H        -0.507219        -0.798924         0.023175
 H         0.392537        -0.185661         1.285547
 H        -0.637080         1.021206         0.295121
 H         1.244491        -1.112723        -2.269800
 H        -0.224873        -0.362621        -2.365378
 H         0.310908         1.181740        -4.809922
 H         1.511287         2.560379        -4.460278
 H         3.641003         1.692771        -2.315714
 H         2.246581         2.755831        -1.938093
 H         2.374142         2.093337         0.169808
