19
Iteration:   312
 C        -0.148430         0.400958        -0.056614
 C         1.111292         0.242312        -0.920625
 C         1.200944        -0.465463        -2.266389
 C         1.822944         0.725743        -2.968895
 C         1.056578         1.778040        -3.548480
 O         1.948266         0.932120        -4.361514
 C         2.967653         1.179511        -2.146741
 C         2.306172         1.111592        -0.827231
 O         2.470211        -0.161348        -0.034779
 H        -0.617907        -0.418985         0.448216
 H        -0.025277         1.273255         0.495583
 H        -1.070218         0.537805        -0.884721
 H         1.808633        -1.385086        -2.086847
 H         0.271119        -0.803516        -2.651168
 H        -0.014230         1.716590        -3.865266
 H         1.402475         2.827638        -3.193075
 H         3.758900         0.428648        -2.235098
 H         3.497488         2.158030        -2.245707
 H         2.329574         1.990673        -0.235264
