19
Iteration:   161charge 0 multiplicity 1
 C         0.106398         0.050928         0.507152
 C         1.045790         0.258599        -0.698527
 C         0.646293         0.129980        -2.226333
 C         1.692185         1.039721        -2.956314
 C         1.426436         1.577182        -4.334197
 O         2.333314         0.471453        -4.094641
 C         2.632775         1.733512        -1.990258
 C         2.374570         1.034252        -0.656701
 O         2.401006        -0.392838        -0.620277
 H        -0.719789        -0.588547         0.230962
 H         0.644478        -0.621287         1.333706
 H        -0.261989         0.977947         0.904482
 H         0.749893        -0.871353        -2.727753
 H        -0.381440         0.515020        -2.277188
 H         0.480293         1.300344        -4.823900
 H         1.764050         2.599723        -4.666450
 H         3.639707         1.517201        -2.324219
 H         2.381367         2.829247        -1.830937
 H         2.710030         1.507298         0.259886
