19
Iteration:  2235charge 0 multiplicity 1
 C         0.101036        -0.225672         0.316374
 C         1.143543         0.162044        -0.651144
 C         0.726037         0.119930        -2.129314
 C         1.711224         0.999750        -3.023991
 C         1.372909         1.446346        -4.364384
 O         2.308864         0.377156        -4.152246
 C         2.542295         1.748534        -2.032095
 C         2.189628         1.290505        -0.600595
 O         2.573890        -0.050767        -0.425052
 H        -0.906080         0.118652        -0.027245
 H         0.119483        -1.407401         0.513517
 H         0.323653         0.203465         1.248456
 H         0.403679        -0.918776        -2.498229
 H        -0.274555         0.602928        -2.121437
 H         0.500447         1.143267        -4.991903
 H         1.825778         2.422003        -4.617236
 H         3.660502         1.551799        -2.116139
 H         2.422055         2.860941        -2.122026
 H         2.217223         2.024816         0.175087
