19
Iteration:  1562charge 0 multiplicity 1
 C        -0.098893         0.142399         0.114397
 C         1.263581         0.207612        -0.699062
 C         1.036835        -0.148700        -2.232176
 C         1.729806         0.912583        -2.935278
 C         1.132091         1.653451        -4.085922
 O         2.035842         0.569243        -4.372197
 C         2.795720         1.505679        -2.061838
 C         2.290740         1.266503        -0.578406
 O         2.526015        -0.220814        -0.187813
 H        -0.232310         0.896484         0.869020
 H        -0.881221         0.172357        -0.615333
 H        -0.151145        -1.003431         0.565252
 H         1.626415        -1.097413        -2.196401
 H        -0.033507        -0.400235        -2.431171
 H         0.096691         1.488435        -4.465819
 H         1.484062         2.667533        -4.210596
 H         3.765621         0.970526        -2.280126
 H         3.151443         2.536961        -2.384809
 H         2.231805         2.043384         0.236634
