19
Iteration:  4055
 C         0.105709        -0.151757         0.340919
 C         1.171816         0.240465        -0.695518
 C         0.836489        -0.058474        -2.157504
 C         1.622886         0.964984        -3.019998
 C         1.264945         1.499345        -4.366904
 O         2.334556         0.520710        -4.207292
 C         2.598783         1.649306        -2.022671
 C         2.161888         1.351103        -0.630256
 O         2.564451        -0.125648        -0.303564
 H        -0.626124        -0.798946        -0.098308
 H         0.464472        -0.705178         1.156058
 H        -0.367470         0.848155         0.659486
 H         0.957862        -1.061465        -2.419445
 H        -0.279177         0.179691        -2.392168
 H         0.368047         1.161283        -4.827681
 H         1.509821         2.496497        -4.689034
 H         3.494499         1.073224        -2.318319
 H         2.737040         2.763491        -2.129851
 H         2.063084         2.108542         0.243248
