19
Iteration:  1141charge 0 multiplicity 1
 C         0.335625        -0.424235         0.345172
 C         1.133208         0.364522        -0.744795
 C         0.425951         0.558055        -2.137131
 C         1.627318         1.071638        -2.848849
 C         1.605858         1.175560        -4.273405
 O         2.317618         0.088500        -3.777403
 C         2.486194         2.068396        -1.916365
 C         2.262521         1.258384        -0.645085
 O         2.421320        -0.148726        -0.980496
 H         0.845577        -0.326130         1.341864
 H        -0.670830        -0.126082         0.392619
 H         0.363591        -1.409580        -0.058296
 H         0.279947        -0.460826        -2.571418
 H        -0.480599         1.178098        -2.315574
 H         0.637308         0.982221        -4.757423
 H         2.276526         1.860273        -4.865033
 H         3.527968         1.857005        -2.342430
 H         2.116394         3.148019        -1.974138
 H         2.606646         1.709534         0.305347
