19
Iteration:  3941
 C         0.171344        -0.175259         0.477823
 C         1.113243         0.229593        -0.638189
 C         0.587135         0.178439        -2.167109
 C         1.636228         1.042679        -3.001720
 C         1.476866         1.359421        -4.465146
 O         2.423040         0.405235        -4.060102
 C         2.445397         1.924491        -1.996418
 C         2.271819         1.193783        -0.543332
 O         2.485687        -0.230583        -0.678799
 H         0.547393        -1.202996         0.773380
 H         0.482121         0.385037         1.467731
 H        -0.858480        -0.046352         0.408091
 H         0.607389        -0.964725        -2.365249
 H        -0.354115         0.606404        -2.212464
 H         0.640676         0.915349        -5.054707
 H         1.730187         2.367679        -4.883279
 H         3.456641         1.841109        -2.404847
 H         2.034988         2.900944        -1.851878
 H         2.601664         1.685078         0.331251
