19
Iteration:  1707
 C         0.046128        -0.098798         0.290204
 C         1.154933         0.212128        -0.724541
 C         0.746656         0.175419        -2.157942
 C         1.786175         1.023401        -2.938164
 C         1.283601         1.462486        -4.274114
 O         2.214583         0.409991        -4.218638
 C         2.702512         1.688663        -2.020092
 C         2.254886         1.238190        -0.596075
 O         2.511961        -0.224258        -0.426727
 H         0.307853         0.273227         1.334299
 H        -0.902308         0.287994         0.081863
 H         0.035114        -1.146204         0.294029
 H         0.692062        -0.810170        -2.554862
 H        -0.229436         0.615282        -2.305137
 H         0.330887         1.032662        -4.549001
 H         1.501431         2.436581        -4.761340
 H         3.780196         1.643405        -2.139867
 H         2.535302         2.719123        -1.926194
 H         2.477814         1.875292         0.281809
