19
Iteration:  1737
 C         0.198292        -0.065798         0.481989
 C         1.069706         0.229880        -0.761602
 C         0.595265         0.124229        -2.202211
 C         1.650493         1.023318        -2.923700
 C         1.503154         1.480310        -4.261842
 O         2.307661         0.367195        -4.082736
 C         2.551633         1.747724        -2.011551
 C         2.290793         1.205633        -0.620430
 O         2.455897        -0.200189        -0.677164
 H         0.487413         0.518907         1.308061
 H        -0.839725        -0.030456         0.219443
 H         0.441044        -1.222391         0.763084
 H         0.556666        -0.920488        -2.596314
 H        -0.395321         0.548743        -2.450772
 H         0.610504         1.235795        -4.814559
 H         1.917951         2.468549        -4.512428
 H         3.614337         1.566234        -2.320826
 H         2.355087         2.839892        -1.802337
 H         2.570397         1.697654         0.333973
