19
Iteration:  3255
 C         0.248880        -0.128303         0.530864
 C         1.114857         0.286262        -0.677855
 C         0.536145         0.061704        -2.220961
 C         1.616305         0.933011        -3.003838
 C         1.454299         1.446448        -4.359604
 O         2.490665         0.449449        -4.034351
 C         2.445806         1.811830        -2.024393
 C         2.250950         1.226737        -0.701112
 O         2.453330        -0.202628        -0.617572
 H         0.275514        -1.197751         0.539307
 H         0.892223         0.115554         1.415075
 H        -0.800455         0.317011         0.594769
 H         0.628629        -1.036661        -2.496988
 H        -0.481707         0.434223        -2.106717
 H         0.652547         1.018818        -4.962367
 H         1.851215         2.449116        -4.620757
 H         3.504794         1.728412        -2.228762
 H         1.961123         2.856160        -1.963633
 H         2.259341         2.032862         0.120813
