19
Iteration:  1061charge 0 multiplicity 1
 C         0.225776        -0.058572         0.485915
 C         1.050675         0.288557        -0.702827
 C         0.590227         0.266975        -2.205745
 C         1.659214         1.055632        -2.912683
 C         1.485932         1.308450        -4.328688
 O         2.465411         0.328347        -3.939551
 C         2.398502         1.949191        -1.910099
 C         2.278163         1.153920        -0.637525
 O         2.446566        -0.368436        -0.890957
 H         0.958682        -0.309566         1.338727
 H        -0.363881         0.819487         0.827038
 H        -0.361328        -0.878210         0.356185
 H         0.538943        -0.774509        -2.552421
 H        -0.436272         0.625255        -2.359421
 H         0.527136         0.925103        -4.798696
 H         1.854212         2.311913        -4.727561
 H         3.440368         2.150634        -2.187179
 H         2.041437         3.018735        -1.948475
 H         2.798957         1.492991         0.254919
