19
Iteration:   187charge 0 multiplicity 1
 C         0.129044         0.169083         0.379651
 C         1.097186         0.211205        -0.738963
 C         0.784733        -0.004036        -2.205135
 C         1.750770         0.956625        -2.984049
 C         1.310403         1.667321        -4.254852
 O         2.280074         0.584569        -4.316666
 C         2.694420         1.628857        -1.959326
 C         2.268680         1.068807        -0.568553
 O         2.395766        -0.434031        -0.425892
 H        -0.837349        -0.392650         0.253523
 H         0.672512        -0.218922         1.287819
 H        -0.266975         1.198488         0.542757
 H         0.914720        -1.023377        -2.566431
 H        -0.302485         0.257653        -2.335753
 H         0.316006         1.424634        -4.576083
 H         1.591939         2.642110        -4.519861
 H         3.677774         1.217962        -2.248273
 H         2.627837         2.716213        -1.958363
 H         2.220708         1.706954         0.352587
