19
Iteration:  1962
 C         0.060886         0.035614         0.434240
 C         1.196117         0.097382        -0.717009
 C         0.735559         0.109428        -2.160883
 C         1.641704         1.061899        -2.998053
 C         1.368357         1.311559        -4.363186
 O         2.439809         0.450171        -4.190374
 C         2.426204         1.905343        -1.889851
 C         2.191484         1.142681        -0.575617
 O         2.593526        -0.254598        -0.589486
 H        -0.845735        -0.499945         0.065705
 H         0.590787        -0.702411         1.265165
 H        -0.214414         1.032103         0.725567
 H         0.558599        -1.001267        -2.305236
 H        -0.203656         0.631935        -2.112221
 H         0.408887         0.895635        -4.785812
 H         1.629642         2.320815        -4.843527
 H         3.426080         1.974970        -2.328361
 H         2.090169         2.932489        -1.948678
 H         2.443942         1.634496         0.366137
