19
Iteration:  2061charge 0 multiplicity 1
 C         0.178252        -0.123728         0.267309
 C         1.170313         0.234961        -0.759842
 C         0.791854        -0.032202        -2.239851
 C         1.718902         0.884915        -3.029063
 C         1.243933         1.482186        -4.211825
 O         2.287107         0.469146        -4.216062
 C         2.633250         1.612475        -2.048948
 C         2.094625         1.329581        -0.620160
 O         2.523850        -0.019442        -0.225076
 H        -0.443973         0.690986         0.449742
 H        -0.505887        -1.045194        -0.104818
 H         0.742726        -0.206107         1.210272
 H         1.047065        -1.039443        -2.708569
 H        -0.227310         0.171537        -2.552924
 H         0.294775         1.213976        -4.713341
 H         1.726265         2.513909        -4.325907
 H         3.732172         1.442667        -2.167393
 H         2.507741         2.711711        -2.136743
 H         2.028501         2.016345         0.204777
