19
Iteration:  2753
 C         0.127176        -0.121370         0.467176
 C         1.100606         0.224846        -0.687556
 C         0.749347        -0.036706        -2.093856
 C         1.723533         0.927738        -3.065367
 C         1.384260         1.618624        -4.288851
 O         2.267965         0.436029        -4.248165
 C         2.634908         1.758333        -2.080441
 C         2.227863         1.286129        -0.614575
 O         2.422841        -0.176402        -0.435682
 H         0.619339        -0.878919         1.015673
 H        -0.172933         0.759514         1.005394
 H        -0.797927        -0.768720         0.022034
 H         0.995164        -1.084357        -2.454700
 H        -0.402955         0.102934        -2.383574
 H         0.454131         1.328125        -4.770774
 H         1.923306         2.559050        -4.519332
 H         3.661558         1.399117        -2.261751
 H         2.511816         2.832245        -2.157208
 H         2.628782         2.028291         0.188406
