19
Iteration:  4525charge 0 multiplicity 1
 C         0.033569        -0.117436         0.326819
 C         1.191937         0.135345        -0.659332
 C         0.876625        -0.015561        -2.179444
 C         1.745643         0.917442        -2.993637
 C         1.252347         1.444617        -4.322073
 O         2.340894         0.443733        -4.276935
 C         2.443905         1.885848        -1.989621
 C         2.198123         1.280744        -0.575528
 O         2.599373        -0.142421        -0.382067
 H        -0.697224        -0.798695        -0.003065
 H         0.336423        -0.504385         1.338047
 H        -0.386796         0.829277         0.424546
 H         0.896244        -1.040877        -2.497858
 H        -0.166533         0.182964        -2.375959
 H         0.267067         1.157576        -4.628161
 H         1.574232         2.464951        -4.499278
 H         3.465664         2.059964        -2.358701
 H         2.049227         2.942324        -2.122461
 H         2.571475         1.831026         0.362402
