19
Iteration:  1121
 C         0.374294        -0.349346         0.384055
 C         1.090277         0.310295        -0.763768
 C         0.447043         0.461324        -2.081078
 C         1.591862         1.152253        -2.982475
 C         1.730190         1.291701        -4.458168
 O         2.241404         0.113361        -3.643536
 C         2.399894         1.976449        -1.964184
 C         2.289636         1.185843        -0.646043
 O         2.451973        -0.167979        -0.911556
 H         0.993029        -0.296765         1.208192
 H        -0.582775         0.126342         0.554399
 H         0.178377        -1.480039         0.131183
 H         0.159449        -0.419027        -2.677074
 H        -0.354424         1.210228        -1.954614
 H         0.943669         1.058825        -5.140870
 H         2.404373         2.039014        -4.820015
 H         3.453550         2.157191        -2.263835
 H         1.705249         2.812689        -1.880617
 H         2.770883         1.636989         0.249535
