19
Iteration:  2230
 C         0.114415        -0.242845         0.310170
 C         1.182815         0.169966        -0.604471
 C         0.713566         0.100499        -2.146861
 C         1.751340         0.960599        -3.051526
 C         1.379089         1.470037        -4.369596
 O         2.272951         0.376641        -4.169579
 C         2.575720         1.772965        -1.987723
 C         2.121701         1.285702        -0.629604
 O         2.556899        -0.038374        -0.423027
 H        -0.933216         0.071985        -0.053891
 H         0.230577        -1.259556         0.414190
 H         0.274323         0.368060         1.295602
 H         0.450096        -0.881160        -2.454764
 H        -0.262596         0.631224        -2.224661
 H         0.505425         1.063605        -4.837508
 H         1.755259         2.429310        -4.733238
 H         3.598594         1.453046        -2.086362
 H         2.549971         2.849740        -1.962651
 H         2.344182         1.979010         0.263136
