19
Iteration:  4879
 C         0.376407        -0.281421         0.418432
 C         1.140859         0.229384        -0.696093
 C         0.422950         0.258761        -2.138169
 C         1.543216         1.015663        -2.957529
 C         1.665475         1.442456        -4.399476
 O         2.360540         0.308770        -3.951681
 C         2.343579         1.883537        -2.030018
 C         2.203579         1.170495        -0.617325
 O         2.536136        -0.159144        -0.641083
 H         0.927689        -0.278974         1.342549
 H        -0.556064         0.264339         0.495924
 H         0.172596        -1.366319         0.205935
 H         0.174331        -0.691582        -2.596731
 H        -0.380790         1.028955        -2.413448
 H         0.795630         1.399684        -5.105871
 H         2.253524         2.364878        -4.657311
 H         3.383353         1.863137        -2.478350
 H         2.086132         2.878459        -2.042091
 H         2.294459         1.830579         0.163544
