19
Iteration:  2471charge 0 multiplicity 1
 C         0.221742        -0.054304         0.479621
 C         1.128380         0.152969        -0.732273
 C         0.695377         0.099970        -2.210748
 C         1.676126         0.970110        -2.938298
 C         1.469453         1.319781        -4.372301
 O         2.423289         0.377352        -4.013651
 C         2.350217         1.931250        -1.943033
 C         2.129440         1.231998        -0.658523
 O         2.553386        -0.188431        -0.673787
 H        -0.444760         0.895463         0.435132
 H        -0.291362        -0.934159         0.647714
 H         0.760921         0.174594         1.468307
 H         0.710779        -0.832658        -2.707265
 H        -0.356114         0.448075        -2.226194
 H         0.574424         0.927575        -4.892387
 H         1.727381         2.318124        -4.717339
 H         3.422948         2.037469        -2.229810
 H         1.749056         2.785386        -2.209632
 H         2.329564         1.649101         0.316685
