19
Iteration:  3343charge 0 multiplicity 1
 C         0.188752        -0.417682         0.277892
 C         1.176347         0.293118        -0.700336
 C         0.525021         0.407471        -2.037566
 C         1.563914         1.052409        -2.925410
 C         1.541436         1.194816        -4.430951
 O         2.356030         0.277192        -3.790440
 C         2.394900         1.968638        -1.996040
 C         2.360029         1.270791        -0.676175
 O         2.556027        -0.118480        -0.754256
 H        -0.053275        -1.420813         0.070486
 H         0.501853        -0.222389         1.347900
 H        -0.830074         0.029223         0.140502
 H         0.154982        -0.545357        -2.529435
 H        -0.302489         1.043955        -1.990434
 H         0.724394         0.725585        -4.988214
 H         2.025199         2.034383        -4.974399
 H         3.470109         2.144620        -2.261943
 H         1.936296         2.993858        -2.101543
 H         2.632277         1.761874         0.253381
