19
Iteration:   716
 C        -0.028466         0.160864         0.317316
 C         1.141206         0.236594        -0.723024
 C         0.891839        -0.124718        -2.208470
 C         1.638937         0.959692        -2.972140
 C         1.259876         1.663919        -4.187146
 O         2.256024         0.538564        -4.308988
 C         2.662428         1.630573        -2.017001
 C         2.320202         1.134404        -0.621330
 O         2.509863        -0.333990        -0.342499
 H        -0.317657         1.185515         0.423149
 H        -0.856121        -0.470241         0.135931
 H         0.325145        -0.158216         1.398952
 H         1.323854        -1.092762        -2.558992
 H        -0.190524        -0.086889        -2.457188
 H         0.353746         1.328890        -4.671151
 H         1.564332         2.650935        -4.473465
 H         3.711953         1.205551        -2.276716
 H         2.616968         2.723324        -1.995272
 H         2.431690         1.820576         0.221123
