19
Iteration:  1916
 C         0.313815        -0.126909         0.421771
 C         1.117097         0.271781        -0.706143
 C         0.538754         0.170742        -2.162216
 C         1.593705         1.037761        -2.914163
 C         1.569678         1.365765        -4.335688
 O         2.398782         0.315245        -3.921031
 C         2.425093         1.923843        -1.987928
 C         2.247379         1.265544        -0.715412
 O         2.411265        -0.297723        -0.718311
 H         0.342495        -1.322514         0.434253
 H         0.859000         0.120113         1.404758
 H        -0.662497         0.170298         0.341035
 H         0.615661        -0.666575        -2.856563
 H        -0.490256         0.569866        -2.167606
 H         0.621198         1.085307        -4.898658
 H         1.984935         2.325179        -4.689701
 H         3.450443         2.016428        -2.405413
 H         2.082408         2.969407        -1.955369
 H         2.418275         1.862662         0.203701
