19
Iteration:  2895
 C         0.324305        -0.292590         0.386131
 C         1.143817         0.201954        -0.788415
 C         0.513664         0.492080        -2.116431
 C         1.630798         1.086565        -2.964618
 C         1.635516         1.368822        -4.376992
 O         2.255389         0.156836        -3.816495
 C         2.424872         1.910451        -1.974758
 C         2.179825         1.211973        -0.621561
 O         2.513662        -0.213138        -0.848191
 H         0.376759         0.467348         1.146665
 H        -0.736967        -0.356315         0.191672
 H         0.718734        -1.201705         1.043687
 H         0.303821        -0.496626        -2.550570
 H        -0.351503         1.119763        -2.139144
 H         0.769273         1.220423        -5.034976
 H         2.375976         2.162570        -4.576887
 H         3.502640         1.989141        -2.351786
 H         1.851079         2.934964        -1.637867
 H         2.499243         1.619655         0.399532
