19
Iteration:  3166
 C         0.122825        -0.156707         0.420978
 C         1.086726         0.288620        -0.682629
 C         0.702672         0.026586        -2.144172
 C         1.762255         0.945573        -2.997314
 C         1.283469         1.441778        -4.330502
 O         2.360003         0.500781        -4.202396
 C         2.577628         1.766379        -2.079509
 C         2.230730         1.260204        -0.626016
 O         2.516743        -0.169075        -0.435568
 H        -0.327509        -1.065064         0.255634
 H         0.584143        -0.360947         1.337760
 H        -0.698125         0.668119         0.633404
 H         0.922934        -1.021452        -2.568564
 H        -0.378987         0.182707        -2.434986
 H         0.371466         1.054466        -4.831863
 H         1.616223         2.452650        -4.575599
 H         3.615722         1.412069        -2.098842
 H         2.557807         2.920476        -2.201280
 H         2.366560         1.904925         0.342191
