19
Iteration:   377
 C        -0.167719         0.341268        -0.012131
 C         1.174353         0.180079        -0.740904
 C         1.212252        -0.310336        -2.210003
 C         1.812226         0.908475        -2.925435
 C         1.047533         1.791486        -3.867964
 O         1.916734         0.738844        -4.410308
 C         2.992245         1.331765        -2.061929
 C         2.388749         1.057652        -0.709613
 O         2.384431        -0.252256        -0.110670
 H        -1.047287        -0.245220        -0.291582
 H        -0.007116         0.303709         0.975773
 H        -0.357846         1.481939        -0.315461
 H         1.832483        -1.213641        -2.400934
 H         0.234635        -0.562625        -2.562907
 H        -0.034554         1.549122        -3.815614
 H         1.297056         2.854155        -4.160681
 H         3.776232         0.574341        -2.198283
 H         3.244335         2.381054        -2.211656
 H         2.566895         1.808312         0.040588
