19
Iteration:  4297
 C         0.296361        -0.167714         0.415758
 C         1.093709         0.265299        -0.800778
 C         0.628037         0.140599        -2.170345
 C         1.480648         1.092431        -2.903352
 C         1.486086         1.313782        -4.300239
 O         2.469611         0.364706        -3.822831
 C         2.371652         1.996082        -2.018421
 C         2.249387         1.194505        -0.735801
 O         2.522403        -0.223088        -0.742747
 H        -0.499591        -0.712747        -0.074280
 H         0.818971        -0.812712         1.228435
 H        -0.236778         0.668570         0.849776
 H         0.694395        -0.851232        -2.500063
 H        -0.485450         0.445719        -2.356885
 H         0.882378         0.771511        -4.976802
 H         1.957682         2.164085        -4.698251
 H         3.369333         2.033146        -2.476218
 H         1.829940         2.896270        -1.784074
 H         2.381302         1.434071         0.379178
