19
Iteration:   228
 C        -0.080246         0.214356         0.102687
 C         1.161044         0.203240        -0.743761
 C         0.997754        -0.140272        -2.149702
 C         1.758254         0.934262        -2.972816
 C         1.228742         1.793946        -3.960943
 O         2.068265         0.655783        -4.339926
 C         2.851017         1.414101        -2.095323
 C         2.318085         1.122177        -0.667499
 O         2.399760        -0.322269        -0.258302
 H        -0.234949        -0.855269         0.191801
 H         0.036280         0.548555         1.268405
 H        -0.835161         0.795890        -0.286916
 H         1.418875        -1.149958        -2.357641
 H        -0.080551        -0.100590        -2.336087
 H         0.187048         1.650330        -4.210534
 H         1.631998         2.787636        -4.168307
 H         3.647910         0.669476        -2.124517
 H         3.287536         2.431080        -2.384806
 H         2.478190         1.706998         0.209974
