19
Iteration:  3356
 C         0.212584        -0.383241         0.395055
 C         1.107909         0.305827        -0.697783
 C         0.516626         0.428731        -2.142316
 C         1.589380         1.083855        -2.966230
 C         1.491086         1.208264        -4.404062
 O         2.484814         0.223437        -3.776869
 C         2.389720         2.007327        -2.008853
 C         2.253629         1.287741        -0.643075
 O         2.513361        -0.151748        -0.819400
 H         0.165802        -1.432515        -0.049386
 H         0.794845        -0.640675         1.343715
 H        -0.625516         0.140597         0.624564
 H         0.255088        -0.648214        -2.380782
 H        -0.429524         1.012098        -2.080904
 H         0.660219         0.795100        -5.001363
 H         1.999726         2.089999        -4.805977
 H         3.391730         1.878198        -2.526409
 H         2.104695         3.035787        -1.737222
 H         2.832915         1.682777         0.144610
