19
Iteration:  4562charge 0 multiplicity 1
 C         0.123043        -0.179157         0.204290
 C         1.147983         0.249963        -0.728026
 C         0.886515        -0.029321        -2.189458
 C         1.684074         0.990358        -2.989828
 C         1.197170         1.431730        -4.292646
 O         2.259501         0.445291        -4.078976
 C         2.571594         1.781779        -2.033361
 C         2.169519         1.318823        -0.569619
 O         2.575692        -0.118841        -0.379949
 H        -0.436692        -1.118528        -0.209139
 H         0.602094        -0.260959         1.166702
 H        -0.649461         0.646306         0.263030
 H         1.497940        -0.870313        -2.353710
 H        -0.135617         0.037496        -2.516881
 H         0.208880         1.320755        -4.765215
 H         1.584788         2.414461        -4.667874
 H         3.609951         1.332300        -2.199416
 H         2.457288         2.873052        -2.048113
 H         2.388681         1.955222         0.246941
