19
Iteration:  2100charge 0 multiplicity 1
 C        -0.054061         0.010416         0.342887
 C         1.124741         0.249493        -0.697409
 C         1.000870        -0.113006        -2.209537
 C         1.702502         0.927168        -2.967263
 C         1.181399         1.441264        -4.283307
 O         2.316759         0.516064        -4.233583
 C         2.583901         1.775885        -1.996078
 C         2.241354         1.206569        -0.592950
 O         2.570770        -0.146429        -0.408583
 H        -0.689064         1.017951         0.476346
 H        -0.750056        -0.647391        -0.108959
 H         0.171189        -0.496528         1.305582
 H         1.720793        -0.919732        -2.268934
 H        -0.110893        -0.363285        -2.332690
 H         0.259686         1.023243        -4.708252
 H         1.380157         2.415374        -4.704054
 H         3.711240         1.709568        -2.080138
 H         2.216344         2.755904        -2.340707
 H         2.378070         1.940260         0.263268
