19
Iteration:  1509
 C         0.033004         0.133204         0.309442
 C         1.128530         0.258210        -0.770908
 C         1.054295        -0.347805        -2.249779
 C         1.860015         0.785555        -3.052253
 C         1.101355         1.659603        -3.971059
 O         2.163634         0.765280        -4.426788
 C         2.795100         1.349604        -2.038576
 C         2.138790         1.253613        -0.724536
 O         2.391695        -0.062231        -0.207072
 H         0.353599         0.731242         1.207117
 H        -0.914400         0.422400        -0.073073
 H        -0.055681        -0.927803         0.662796
 H         1.488932        -1.339759        -2.095742
 H        -0.005153        -0.293197        -2.442500
 H         0.060806         1.512557        -4.353387
 H         1.360930         2.698807        -4.072204
 H         3.763332         0.794558        -1.979676
 H         3.173098         2.314431        -2.393677
 H         2.398250         2.065299         0.030214
