19
Iteration:  3745charge 0 multiplicity 1
 C         0.140306        -0.131149         0.471768
 C         1.166356         0.196893        -0.724427
 C         0.679237         0.171143        -2.134422
 C         1.744506         1.036991        -2.974759
 C         1.467358         1.427978        -4.361962
 O         2.326066         0.251305        -4.026775
 C         2.449438         1.955252        -1.961757
 C         2.130673         1.176899        -0.627952
 O         2.574109        -0.203563        -0.721589
 H         0.049101        -1.255778         0.622817
 H         0.453814         0.406935         1.465118
 H        -0.801133        -0.027168         0.075483
 H         0.454831        -0.737055        -2.726345
 H        -0.312735         0.750761        -2.055543
 H         0.548515         1.116594        -4.895489
 H         1.873515         2.404662        -4.678932
 H         3.547875         2.105960        -2.016654
 H         2.041308         3.039835        -1.926438
 H         2.265387         1.733711         0.248980
