19
Iteration:  3133charge 0 multiplicity 1
 C         0.280952        -0.105798         0.508111
 C         1.123420         0.164121        -0.771526
 C         0.661789        -0.040409        -2.223440
 C         1.776433         0.939399        -3.014393
 C         1.401903         1.572033        -4.337374
 O         2.252281         0.432019        -4.210139
 C         2.599795         1.744030        -1.986547
 C         2.065885         1.291259        -0.646181
 O         2.469591        -0.152714        -0.382819
 H         0.204229        -1.109794         0.609362
 H         0.734220         0.457794         1.253997
 H        -0.845647         0.204115         0.306204
 H         0.997567        -1.016132        -2.731422
 H        -0.352977         0.386618        -2.462218
 H         0.411937         1.418176        -4.817280
 H         1.873515         2.516059        -4.632950
 H         3.626633         1.340669        -2.077087
 H         2.653370         2.878361        -2.217580
 H         2.071359         1.996782         0.295959
