19
Iteration:  1816charge 0 multiplicity 1
 C         0.230578        -0.271616         0.351899
 C         1.182644         0.188205        -0.776962
 C         0.525408         0.423112        -2.077891
 C         1.596985         1.118041        -2.929624
 C         1.522435         1.173194        -4.360449
 O         2.384924         0.260816        -3.762059
 C         2.446892         2.016722        -1.944696
 C         2.244478         1.241570        -0.625065
 O         2.466358        -0.199032        -0.951067
 H         0.836319        -0.562193         1.308074
 H        -0.427165         0.528138         0.617441
 H        -0.400318        -1.164685         0.106145
 H         0.289736        -0.520942        -2.448208
 H        -0.301755         1.129216        -2.027444
 H         0.628003         0.813772        -4.870580
 H         2.184076         1.883057        -4.837723
 H         3.505653         2.065380        -2.244406
 H         2.147174         3.054327        -1.776229
 H         2.773897         1.431480         0.313776
