19
Iteration:  1749charge 0 multiplicity 1
 C         0.216818        -0.111634         0.543769
 C         1.062530         0.256983        -0.668622
 C         0.559050         0.185020        -2.168175
 C         1.604709         1.013054        -2.959524
 C         1.559899         1.522080        -4.411011
 O         2.354730         0.361320        -4.022102
 C         2.510220         1.812474        -1.967660
 C         2.234097         1.122890        -0.693291
 O         2.478063        -0.264705        -0.715528
 H         0.453193         0.604093         1.335114
 H        -0.796810         0.061407         0.468595
 H         0.408044        -1.193059         0.988261
 H         0.768640        -0.767629        -2.630310
 H        -0.506122         0.408655        -2.116653
 H         0.688462         1.381982        -5.014857
 H         2.211710         2.377178        -4.684980
 H         3.584868         1.809190        -2.254886
 H         2.165695         2.806771        -2.221899
 H         2.576416         1.669014         0.205318
