19
Iteration:  2266charge 0 multiplicity 1
 C         0.243505        -0.114391         0.373572
 C         1.102410         0.237156        -0.719903
 C         0.669247         0.052685        -2.169469
 C         1.658137         1.024890        -2.949107
 C         1.410057         1.405314        -4.422572
 O         2.403333         0.370843        -3.987683
 C         2.401469         1.873975        -2.010331
 C         2.273446         1.230890        -0.645405
 O         2.480922        -0.186387        -0.541957
 H        -0.760023         0.570059         0.389711
 H        -0.272139        -1.187462         0.228888
 H         0.749295        -0.215668         1.264424
 H         0.789687        -1.042292        -2.466835
 H        -0.385542         0.416799        -2.267440
 H         0.601314         1.047147        -5.073868
 H         1.858916         2.363387        -4.702245
 H         3.519192         2.035063        -2.109423
 H         2.004813         2.893004        -2.011026
 H         2.501283         1.959812         0.126093
