19
Iteration:  3670
 C         0.112619        -0.154209         0.391966
 C         1.148867         0.217359        -0.698966
 C         0.793662         0.025933        -2.193042
 C         1.692099         0.928429        -2.980228
 C         1.375674         1.514327        -4.272027
 O         2.301324         0.341990        -4.250427
 C         2.599393         1.795338        -1.949068
 C         2.096730         1.273396        -0.624566
 O         2.538556        -0.087411        -0.480082
 H        -0.114778        -1.233231         0.296864
 H         0.409139         0.188286         1.492865
 H        -0.875010         0.496951         0.277862
 H         0.757783        -0.961039        -2.521944
 H        -0.253352         0.326325        -2.327836
 H         0.396030         1.434567        -4.756153
 H         1.959236         2.377983        -4.585315
 H         3.643838         1.640396        -2.196438
 H         2.537383         2.890755        -1.942593
 H         2.126716         1.875892         0.240225
