19
Iteration:    95
 C         0.373567        -0.348679         0.332000
 C         1.098132         0.297881        -0.776598
 C         0.375415         0.742574        -2.073517
 C         1.606659         1.253033        -2.952141
 C         1.732830         1.239333        -4.426312
 O         2.204416         0.142561        -3.696368
 C         2.532136         1.908553        -1.852631
 C         2.320078         1.081821        -0.628686
 O         2.407150        -0.313528        -0.985348
 H         0.200981        -1.378470         0.024443
 H         0.974117        -0.269806         1.363733
 H        -0.667727        -0.045794         0.451292
 H        -0.160950        -0.044469        -2.700347
 H        -0.377231         1.528908        -1.908497
 H         0.858392         0.887566        -5.023392
 H         2.316484         2.013979        -4.976705
 H         3.619032         1.876527        -2.078846
 H         2.136510         2.951306        -1.652729
 H         2.692653         1.432845         0.323194
