19
Iteration:  4412charge 0 multiplicity 1
 C         0.248680        -0.393620         0.307865
 C         1.170501         0.171977        -0.755098
 C         0.576008         0.385333        -2.164587
 C         1.630778         1.031682        -2.942466
 C         1.448060         1.264263        -4.440132
 O         2.316077         0.228741        -3.870583
 C         2.451302         2.003217        -1.914424
 C         2.216902         1.345137        -0.654640
 O         2.605208        -0.092197        -0.648806
 H         0.607084        -1.413150         0.478919
 H         0.254678         0.015331         1.271350
 H        -0.829054        -0.575094        -0.003982
 H         0.035321        -0.553901        -2.564001
 H        -0.338897         0.990825        -1.967749
 H         0.582174         0.845602        -5.078359
 H         2.075022         2.114434        -4.926199
 H         3.501567         2.143940        -2.171862
 H         1.918208         2.996861        -1.881165
 H         2.404017         1.874063         0.300115
