19
Iteration:  4598charge 0 multiplicity 1
 C         0.180565        -0.184548         0.462906
 C         1.111358         0.175403        -0.713088
 C         0.776054        -0.013583        -2.206042
 C         1.816812         0.859235        -3.058076
 C         1.231116         1.527265        -4.266506
 O         2.381061         0.576747        -4.298744
 C         2.569831         1.707422        -2.019954
 C         2.083202         1.264823        -0.658409
 O         2.501553        -0.083610        -0.341794
 H         0.216368        -1.175266         0.824713
 H         0.513722         0.463093         1.307442
 H        -0.916161         0.164045         0.224215
 H         0.771410        -1.111865        -2.338370
 H        -0.275896         0.182004        -2.470518
 H         0.401021         1.104992        -4.790210
 H         1.625481         2.464394        -4.547195
 H         3.592430         1.595255        -1.936838
 H         2.489693         2.736520        -2.324385
 H         2.087656         1.979461         0.188273
