19
Iteration:  2360
 C         0.265264        -0.387615         0.434233
 C         1.090366         0.269027        -0.735575
 C         0.534895         0.347296        -2.157796
 C         1.620755         1.109061        -2.931538
 C         1.618688         1.200210        -4.404477
 O         2.346853         0.193463        -3.735580
 C         2.351173         2.068781        -1.988382
 C         2.257280         1.325117        -0.694868
 O         2.538593        -0.141411        -0.847250
 H        -0.657539         0.127714         0.542142
 H        -0.029384        -1.372078         0.224432
 H         0.841997        -0.432614         1.463532
 H         0.418159        -0.547456        -2.712707
 H        -0.446011         0.845811        -2.045735
 H         0.803524         0.870692        -5.044926
 H         2.279796         1.962365        -4.867388
 H         3.370500         2.285813        -2.294025
 H         1.746465         2.983977        -2.156645
 H         2.496914         1.579594         0.341562
