19
Iteration:  2946
 C         0.274325        -0.313977         0.320031
 C         1.141377         0.278757        -0.756851
 C         0.505122         0.540655        -2.075299
 C         1.609861         1.160340        -2.968712
 C         1.473626         1.191756        -4.390288
 O         2.416461         0.304242        -3.735224
 C         2.454223         1.954407        -2.007029
 C         2.254762         1.196394        -0.630591
 O         2.490887        -0.282090        -0.821576
 H         0.266611         0.027061         1.318739
 H        -0.744954        -0.410936        -0.024605
 H         0.628163        -1.402071         0.416506
 H         0.056214        -0.339456        -2.647067
 H        -0.284095         1.330475        -2.132781
 H         0.539136         0.674739        -4.594260
 H         1.904797         1.831449        -5.172258
 H         3.436117         1.718041        -2.207215
 H         2.189930         2.932823        -1.924629
 H         2.784222         1.505251         0.366140
