19
Iteration:    51
 C         0.316628        -0.416945         0.324973
 C         1.143509         0.320133        -0.787858
 C         0.387708         0.770507        -2.034420
 C         1.575467         1.208654        -2.919430
 C         1.675223         1.201604        -4.343387
 O         2.247433         0.136593        -3.596243
 C         2.571175         1.912775        -1.916527
 C         2.334285         1.111821        -0.709289
 O         2.403356        -0.275355        -1.082405
 H         0.387305        -1.475102         0.091922
 H         0.397934        -0.131717         1.465232
 H        -0.709627        -0.244496         0.049921
 H        -0.292776         0.036019        -2.561377
 H        -0.242645         1.633829        -1.741888
 H         0.866056         1.009768        -5.080197
 H         2.453717         1.858869        -4.774776
 H         3.586061         2.148264        -2.306837
 H         2.287424         2.951811        -1.559372
 H         2.651137         1.440203         0.286782
