19
Iteration:  2749charge 0 multiplicity 1
 C         0.143341        -0.120744         0.451293
 C         1.089686         0.206814        -0.648875
 C         0.742937        -0.018553        -2.111474
 C         1.720108         0.908994        -3.032024
 C         1.385279         1.604632        -4.282752
 O         2.265777         0.439594        -4.255915
 C         2.688905         1.754089        -2.071477
 C         2.178502         1.281645        -0.648341
 O         2.411118        -0.172227        -0.459065
 H         0.572017        -0.913001         1.077142
 H        -0.151735         0.740755         1.081402
 H        -0.714254        -0.677055         0.100585
 H         1.103823        -1.049980        -2.253232
 H        -0.202012         0.129359        -2.417300
 H         0.421940         1.422495        -4.783078
 H         1.819860         2.584199        -4.449830
 H         3.726848         1.551843        -2.288615
 H         2.609052         2.871529        -2.226850
 H         2.442883         1.979458         0.101989
