19
Iteration:   442charge 0 multiplicity 1
 C         0.096388         0.084382         0.398163
 C         1.121289         0.233739        -0.740584
 C         0.801657        -0.022669        -2.198556
 C         1.737146         0.943998        -3.039628
 C         1.268431         1.740601        -4.204944
 O         2.195430         0.601721        -4.331082
 C         2.838662         1.427091        -1.993731
 C         2.216357         1.168768        -0.620979
 O         2.392165        -0.314579        -0.356705
 H        -0.143083        -0.972104         0.573662
 H         0.454007         0.386576         1.294920
 H        -0.880272         0.745700         0.232763
 H         0.933334        -1.077998        -2.505006
 H        -0.199936         0.293927        -2.408330
 H         0.262381         1.470361        -4.524097
 H         1.727834         2.673016        -4.566500
 H         3.858697         0.900438        -1.893771
 H         3.076756         2.462509        -2.175681
 H         2.393131         1.931459         0.157183
