19
Iteration:  2564
 C         0.105036        -0.138018         0.310816
 C         1.166543         0.239591        -0.771861
 C         0.867390        -0.023983        -2.203804
 C         1.694860         0.936033        -3.015396
 C         1.272327         1.499931        -4.253155
 O         2.255738         0.311772        -4.182775
 C         2.616911         1.809140        -2.026273
 C         2.153585         1.323565        -0.593231
 O         2.534583        -0.055542        -0.363909
 H        -0.566768         0.663407         0.347885
 H        -0.331970        -1.137957        -0.006301
 H         0.535110        -0.282173         1.326390
 H         1.097012        -1.069810        -2.610726
 H        -0.235114         0.134099        -2.176809
 H         0.278875         1.254600        -4.625331
 H         1.638610         2.438198        -4.677082
 H         3.611963         1.521237        -1.884301
 H         2.539757         2.908279        -2.151016
 H         2.119716         2.036400         0.221571
