19
Iteration:  2841charge 0 multiplicity 1
 C         0.231973        -0.115274         0.492257
 C         1.119404         0.302381        -0.714865
 C         0.592666         0.182407        -2.137664
 C         1.690546         1.023603        -2.920857
 C         1.465055         1.400593        -4.400346
 O         2.400074         0.394510        -4.018990
 C         2.449433         1.861844        -2.002652
 C         2.305020         1.170136        -0.645023
 O         2.372441        -0.300441        -0.723840
 H         0.370037         0.324389         1.472590
 H        -0.827984        -0.044667         0.306386
 H         0.464960        -1.242013         0.681496
 H         0.577735        -0.845329        -2.517287
 H        -0.318073         0.799636        -2.158145
 H         0.597928         1.111101        -5.020874
 H         1.891082         2.384036        -4.691442
 H         3.466650         1.995597        -2.458910
 H         2.249269         2.885735        -1.717720
 H         2.766976         1.533735         0.315405
