19
Iteration:  1355charge 0 multiplicity 1
 C         0.090093        -0.033865         0.412421
 C         1.116961         0.193940        -0.741071
 C         0.898114        -0.132729        -2.216668
 C         1.712926         0.921895        -3.045564
 C         1.255055         1.635317        -4.238066
 O         2.194894         0.569856        -4.396916
 C         2.788819         1.514446        -2.055646
 C         2.176971         1.248711        -0.568721
 O         2.427505        -0.079813        -0.208545
 H         0.403794         0.618148         1.323993
 H        -0.915828         0.317558         0.144762
 H        -0.041620        -1.130814         0.714429
 H         1.111571        -1.141841        -2.617087
 H        -0.154955        -0.051604        -2.531294
 H         0.264956         1.516820        -4.644905
 H         1.708182         2.613666        -4.498762
 H         3.690449         0.915994        -2.225685
 H         3.031935         2.585090        -2.293330
 H         2.320366         2.069363         0.138428
