19
Iteration:   834
 C        -0.110276         0.206140        -0.032165
 C         1.190778         0.207213        -0.780201
 C         1.184664        -0.432055        -2.231099
 C         1.846229         0.795560        -2.947941
 C         1.046463         1.655231        -3.794717
 O         1.950564         0.757901        -4.416874
 C         2.990241         1.340049        -2.105498
 C         2.289834         1.252670        -0.748529
 O         2.409967         0.019535        -0.042100
 H         0.162433         0.174764         1.169384
 H        -0.789437         1.006909        -0.297208
 H        -0.728995        -0.671017        -0.376689
 H         1.558737        -1.467032        -2.467175
 H         0.107160        -0.331481        -2.429785
 H         0.056237         1.364288        -4.077332
 H         1.251575         2.691261        -3.835508
 H         3.695116         0.476709        -1.889724
 H         3.386055         2.281763        -2.330595
 H         2.122251         2.072084        -0.053705
