19
Iteration:  3529
 C         0.107735        -0.230678         0.394718
 C         1.164506         0.246163        -0.681990
 C         0.719862         0.043782        -2.060894
 C         1.586883         0.921623        -3.011522
 C         1.557082         1.635392        -4.314835
 O         2.253539         0.347796        -4.184043
 C         2.530659         1.712221        -2.082703
 C         2.212530         1.317017        -0.650073
 O         2.495951        -0.099395        -0.452233
 H         0.307341        -1.221218         0.364069
 H         0.312384         0.230252         1.424997
 H        -0.977080         0.028529         0.063616
 H         0.856798        -1.021245        -2.381069
 H        -0.396811         0.135355        -2.356237
 H         0.618188         1.487567        -4.865066
 H         2.081923         2.558766        -4.535835
 H         3.582609         1.652810        -2.400198
 H         2.413618         2.785426        -2.013540
 H         2.505302         1.963120         0.150638
