19
Iteration:  3056charge 0 multiplicity 1
 C         0.162714        -0.108275         0.400343
 C         1.174953         0.220570        -0.761181
 C         0.636036         0.176510        -2.239570
 C         1.727871         1.067298        -2.978933
 C         1.253181         1.352059        -4.341882
 O         2.396560         0.441000        -4.080622
 C         2.548563         1.827976        -1.945394
 C         2.250437         1.191698        -0.583307
 O         2.512252        -0.278824        -0.546799
 H         0.492921        -0.788437         1.084760
 H         0.174005         0.862233         0.775949
 H        -0.929745        -0.340376         0.065693
 H         0.654589        -0.889730        -2.725357
 H        -0.375596         0.710319        -2.363060
 H         0.296744         0.847615        -4.572398
 H         1.527887         2.160313        -5.044719
 H         3.598283         1.885983        -1.965515
 H         2.433253         2.909271        -1.948210
 H         2.398448         1.629979         0.511571
