19
Iteration:    87charge 0 multiplicity 1
 C         0.401846        -0.396514         0.328768
 C         1.124462         0.332121        -0.761191
 C         0.430818         0.790638        -2.176959
 C         1.544395         1.295140        -2.919495
 C         1.716913         1.214168        -4.407121
 O         2.224744         0.130537        -3.634212
 C         2.495604         1.882388        -1.870073
 C         2.330037         1.114709        -0.620031
 O         2.343169        -0.316247        -1.019359
 H         0.488483        -1.449537         0.073602
 H         0.834893        -0.400086         1.450089
 H        -0.553773        -0.064966         0.336416
 H        -0.077360        -0.112904        -2.506858
 H        -0.265084         1.593658        -1.883427
 H         0.871339         1.045447        -4.974345
 H         2.463141         1.799840        -4.896182
 H         3.459060         1.752092        -2.309173
 H         2.268516         2.949399        -1.680167
 H         2.733311         1.380927         0.339992
