19
Iteration:  3191charge 0 multiplicity 1
 C         0.028313        -0.053790         0.213762
 C         1.197830         0.226459        -0.735596
 C         0.817026         0.050103        -2.072751
 C         1.670522         0.985797        -2.927595
 C         1.267146         1.385291        -4.293499
 O         2.328223         0.440683        -4.099364
 C         2.476679         1.792372        -2.010942
 C         2.346718         1.246073        -0.632264
 O         2.564476        -0.186027        -0.498231
 H        -0.660993        -0.875278        -0.083159
 H         0.378015        -0.466568         1.216570
 H        -0.477487         0.809256         0.442436
 H         0.933477        -0.963154        -2.586766
 H        -0.310351         0.263615        -2.218297
 H         0.380652         0.964024        -4.777923
 H         1.540784         2.424857        -4.569291
 H         3.508095         1.827589        -2.412029
 H         2.167303         2.803041        -1.862560
 H         2.465563         1.870176         0.303073
