19
Iteration:  4011
 C         0.083042        -0.092862         0.419597
 C         1.133369         0.191229        -0.698471
 C         0.828939         0.017627        -2.174865
 C         1.786411         0.914600        -2.976725
 C         1.317578         1.486863        -4.277510
 O         2.308849         0.405009        -4.258152
 C         2.547643         1.834558        -1.993491
 C         2.128692         1.273387        -0.584048
 O         2.539928        -0.153845        -0.518847
 H        -0.330530        -1.077272         0.353286
 H         0.500398        -0.131817         1.364469
 H        -0.738818         0.700957         0.551451
 H         1.115260        -0.905090        -2.467739
 H        -0.292392         0.232598        -2.360211
 H         0.321521         1.263117        -4.593958
 H         1.722923         2.369599        -4.729378
 H         3.608308         1.656360        -2.033509
 H         2.137258         2.841842        -2.251660
 H         2.322848         1.844929         0.401156
