19
Iteration:  1657charge 0 multiplicity 1
 C         0.093765         0.023515         0.314346
 C         1.127145         0.229836        -0.770126
 C         0.875487        -0.167699        -2.176033
 C         1.687434         0.915322        -2.961077
 C         1.242498         1.622342        -4.154001
 O         2.241712         0.518724        -4.245764
 C         2.645234         1.584938        -2.074616
 C         2.268714         1.226970        -0.677566
 O         2.461983        -0.134714        -0.327496
 H         0.523240        -0.190394         1.335645
 H        -0.369353         1.066297         0.507468
 H        -0.695709        -0.725156        -0.024004
 H         1.325895        -1.122810        -2.592941
 H        -0.201110        -0.139106        -2.485391
 H         0.249725         1.504019        -4.645086
 H         1.726647         2.585677        -4.310340
 H         3.701037         1.260593        -2.162816
 H         2.792152         2.716208        -2.162116
 H         2.251544         1.997346         0.084257
