19
Iteration:  4455
 C         0.233665        -0.212602         0.440951
 C         1.085474         0.241069        -0.685830
 C         0.660886         0.056231        -2.138412
 C         1.641334         0.997528        -2.968927
 C         1.473989         1.420955        -4.400672
 O         2.379435         0.356651        -4.064347
 C         2.400948         1.916708        -2.001882
 C         2.210176         1.226841        -0.615466
 O         2.550627        -0.118216        -0.616014
 H         0.416689        -1.274101         0.792391
 H         0.425018         0.390165         1.312963
 H        -0.892957        -0.045735         0.207630
 H         0.590597        -1.050411        -2.601195
 H        -0.478393         0.383837        -2.250701
 H         0.631167         1.096206        -5.142736
 H         1.816228         2.442773        -4.879070
 H         3.471150         2.146132        -2.135622
 H         1.998543         2.949567        -1.932589
 H         2.518862         1.704705         0.338417
