19
Iteration:  1627charge 0 multiplicity 1
 C         0.093514         0.157996         0.401618
 C         1.121119         0.214788        -0.761859
 C         0.950196        -0.248540        -2.200224
 C         1.860198         0.806374        -2.968205
 C         1.214704         1.570383        -4.060102
 O         2.188077         0.647500        -4.380609
 C         2.719663         1.545272        -2.020508
 C         2.107063         1.207784        -0.678198
 O         2.454334        -0.138847        -0.407637
 H         0.468450        -0.055682         1.306003
 H        -0.473212         1.056437         0.381810
 H        -0.862158        -0.556747         0.333060
 H         1.384856        -1.256788        -2.402670
 H        -0.046483        -0.094017        -2.609294
 H         0.154667         1.436911        -4.362687
 H         1.584164         2.563616        -4.234285
 H         3.800154         1.297266        -1.808651
 H         2.666751         2.678393        -2.176703
 H         2.096103         2.063620         0.009250
