19
Iteration:  4870
 C         0.318189        -0.345818         0.487450
 C         1.088404         0.190380        -0.674607
 C         0.472761         0.300803        -2.135513
 C         1.576511         1.048713        -3.049819
 C         1.656110         1.506675        -4.384741
 O         2.356986         0.239504        -3.916152
 C         2.340276         1.873524        -2.046518
 C         2.156270         1.275483        -0.670506
 O         2.610590        -0.182901        -0.710322
 H         0.732601        -0.009483         1.372881
 H        -0.737789         0.046568         0.493390
 H         0.120378        -1.442314         0.416525
 H         0.124865        -0.646117        -2.569540
 H        -0.404054         1.054082        -1.981314
 H         0.810832         1.330649        -5.052137
 H         2.445152         2.249382        -4.547480
 H         3.425367         1.863803        -2.307270
 H         1.989619         2.925584        -1.972754
 H         2.561649         1.837955         0.241275
