19
Iteration:   207
 C        -0.009649         0.226875         0.259892
 C         1.110420         0.138336        -0.755374
 C         0.805446        -0.094695        -2.282023
 C         1.737494         0.897586        -2.971637
 C         1.226894         1.719732        -4.117156
 O         2.170795         0.642593        -4.325389
 C         2.840734         1.484327        -1.967523
 C         2.341110         1.081833        -0.634415
 O         2.463534        -0.298310        -0.304523
 H        -0.700788        -0.643071         0.207793
 H         0.414972         0.082030         1.392356
 H        -0.538569         1.101990         0.149757
 H         1.044184        -1.155657        -2.455631
 H        -0.210676         0.158256        -2.640282
 H         0.266878         1.657825        -4.577905
 H         1.676241         2.674807        -4.282981
 H         3.864451         1.179919        -2.124829
 H         2.719983         2.599019        -1.829686
 H         2.531825         1.704520         0.237865
