19
Iteration:  4982
 C         0.196844        -0.120078         0.472174
 C         1.120101         0.165065        -0.718568
 C         0.734346         0.055715        -2.178371
 C         1.669744         1.024914        -3.005891
 C         1.386143         1.601329        -4.435360
 O         2.332309         0.416590        -4.124426
 C         2.409676         1.859676        -2.028373
 C         2.222215         1.143596        -0.599364
 O         2.556838        -0.251547        -0.480686
 H         0.647959         0.137555         1.467128
 H        -0.624885         0.595902         0.302279
 H        -0.100891        -1.130120         0.414628
 H         0.884647        -1.033762        -2.473706
 H        -0.378161         0.169307        -2.232056
 H         0.555075         1.282927        -5.008996
 H         1.975060         2.430839        -4.726081
 H         3.425467         1.723257        -2.192973
 H         2.067361         2.908552        -1.830604
 H         2.306323         1.828810         0.267263
