19
Iteration:  4807
 C         0.245273        -0.372287         0.375656
 C         1.159584         0.261631        -0.754062
 C         0.532984         0.360102        -2.143344
 C         1.588750         1.157452        -2.894226
 C         1.438041         1.175702        -4.393072
 O         2.441705         0.387727        -3.800817
 C         2.516088         2.037874        -1.984096
 C         2.265213         1.141535        -0.666018
 O         2.467921        -0.248265        -0.801601
 H         0.135587         0.427985         1.164357
 H        -0.795602        -0.346958        -0.111699
 H         0.513160        -1.377338         0.793890
 H         0.087824        -0.515290        -2.658854
 H        -0.221590         1.108192        -1.903090
 H         0.575825         0.730765        -4.885583
 H         1.841720         2.011739        -4.964246
 H         3.474683         2.233997        -2.456708
 H         1.997101         3.082070        -1.778891
 H         2.742369         1.585339         0.332745
