19
Iteration:  3963charge 0 multiplicity 1
 C         0.188258        -0.113807         0.365597
 C         1.168224         0.213854        -0.687014
 C         0.659732         0.104595        -2.174522
 C         1.558845         1.083704        -2.984984
 C         1.412041         1.424360        -4.394978
 O         2.386758         0.454865        -3.950402
 C         2.458889         1.842559        -2.070264
 C         2.280238         1.148793        -0.725982
 O         2.521967        -0.254617        -0.487632
 H         0.210786        -1.160762         0.785023
 H         0.236909         0.481518         1.380963
 H        -0.741863         0.167556        -0.020519
 H         0.785550        -1.056404        -2.398740
 H        -0.331268         0.392429        -2.283498
 H         0.601993         0.997580        -5.032577
 H         1.687032         2.418108        -4.817998
 H         3.512232         1.797694        -2.345388
 H         2.068812         2.812615        -1.831555
 H         2.570005         1.815837         0.024824
