19
Iteration:  3322
 C         0.216302        -0.300737         0.250556
 C         1.246601         0.240389        -0.798155
 C         0.577208         0.408797        -2.130191
 C         1.588986         1.098551        -2.974511
 C         1.479713         1.270622        -4.370100
 O         2.296270         0.143566        -3.842525
 C         2.373148         2.016358        -1.942933
 C         2.235830         1.274503        -0.636893
 O         2.626732        -0.185883        -0.633061
 H         0.305004        -1.424612         0.229768
 H         0.400531         0.123823         1.292238
 H        -0.783916        -0.276296        -0.097306
 H         0.361828        -0.596917        -2.614558
 H        -0.231565         1.146024        -1.982102
 H         0.528391         1.039467        -4.855679
 H         2.112740         2.036785        -4.857229
 H         3.442575         2.116294        -2.264893
 H         1.866066         3.035983        -1.951887
 H         2.472469         1.688380         0.325087
