19
Iteration:  4434charge 0 multiplicity 1
 C         0.278155        -0.282495         0.345494
 C         1.187007         0.209054        -0.753064
 C         0.669204         0.337819        -2.191984
 C         1.685825         0.984241        -2.968122
 C         1.476616         1.336462        -4.343216
 O         2.340236         0.227997        -4.042583
 C         2.300908         1.942582        -1.999274
 C         2.210726         1.283035        -0.593784
 O         2.592265        -0.145908        -0.560374
 H         0.434676        -1.308259         0.665633
 H         0.144906         0.219709         1.253936
 H        -0.785258        -0.334949        -0.110533
 H         0.228002        -0.719864        -2.375621
 H        -0.339825         0.862973        -2.110397
 H         0.372844         1.306616        -4.688071
 H         1.986347         2.310473        -4.756624
 H         3.270250         2.332991        -2.275692
 H         1.625481         2.849057        -1.945824
 H         2.305680         1.752267         0.417369
