19
Iteration:  3283charge 0 multiplicity 1
 C         0.305072        -0.277264         0.507500
 C         1.085130         0.281968        -0.671604
 C         0.585846         0.245682        -2.174884
 C         1.643613         1.006934        -2.986071
 C         1.507993         1.392316        -4.394281
 O         2.424315         0.300728        -4.016352
 C         2.421764         1.897209        -1.997154
 C         2.142302         1.298089        -0.655134
 O         2.462717        -0.201885        -0.700891
 H         0.757275        -1.277129         0.728297
 H         0.588147         0.230787         1.435711
 H        -0.810667        -0.068278         0.470497
 H         0.532434        -0.778087        -2.488065
 H        -0.456891         0.665311        -2.186152
 H         0.653511         1.044975        -4.999408
 H         1.975318         2.320125        -4.704659
 H         3.480635         1.583868        -2.051937
 H         2.297711         2.977704        -2.117308
 H         2.338249         1.897859         0.224535
