19
Iteration:   808charge 0 multiplicity 1
 C        -0.072251         0.114216         0.054168
 C         1.158404         0.207129        -0.740752
 C         1.169138        -0.348409        -2.205373
 C         1.777868         0.794250        -2.999804
 C         1.163117         1.782421        -3.835765
 O         1.972390         0.753429        -4.443930
 C         2.885734         1.213973        -2.170623
 C         2.224048         1.214903        -0.740690
 O         2.435403         0.031944         0.005675
 H         0.198129         0.686841         1.015429
 H        -0.875159         0.792141        -0.602395
 H        -0.522295        -0.867862         0.153750
 H         1.953787        -1.121147        -2.139576
 H         0.297321        -0.882029        -2.559982
 H         0.141502         1.545736        -4.278610
 H         1.629642         2.841445        -3.871491
 H         3.706661         0.560881        -2.077569
 H         3.013888         2.317655        -2.405371
 H         2.098871         2.150605        -0.167042
