19
Iteration:  2770
 C         0.121013        -0.094638         0.363664
 C         1.148790         0.271303        -0.666828
 C         0.735965         0.050390        -2.251925
 C         1.588788         0.963736        -2.982432
 C         1.382950         1.535830        -4.371954
 O         2.274651         0.450469        -4.200875
 C         2.545694         1.666282        -1.979718
 C         2.292919         1.165270        -0.617401
 O         2.555825        -0.157976        -0.369436
 H         0.563895        -0.723579         1.215811
 H        -0.323640         0.781356         0.902331
 H        -0.659663        -0.692833         0.013171
 H         0.885669        -0.995174        -2.426931
 H        -0.237791         0.371479        -2.349577
 H         0.406545         1.434505        -4.875871
 H         1.836144         2.489021        -4.643633
 H         3.565804         1.647955        -2.365411
 H         2.350191         2.776843        -2.064388
 H         2.383948         1.850752         0.181981
