19
Iteration:  2412charge 0 multiplicity 1
 C         0.317018        -0.481764         0.437088
 C         1.113367         0.283884        -0.732098
 C         0.504118         0.424481        -2.120559
 C         1.621737         1.133521        -3.020688
 C         1.557879         1.261101        -4.486080
 O         2.396734         0.170464        -3.763959
 C         2.386000         1.959754        -2.027446
 C         2.201304         1.315583        -0.723745
 O         2.504212        -0.105780        -0.636942
 H        -0.696848        -0.430735         0.180230
 H         0.485414        -1.656420         0.334331
 H         0.582078         0.058004         1.500952
 H         0.197341        -0.482511        -2.711494
 H        -0.273379         1.295831        -2.023318
 H         0.682175         0.922791        -5.053836
 H         2.026583         2.052810        -5.112717
 H         3.439953         1.923776        -2.278753
 H         2.064718         3.020047        -2.155305
 H         2.511206         1.820559         0.207488
