19
Iteration:  1094
 C         0.348714        -0.225725         0.452131
 C         1.153817         0.164203        -0.805885
 C         0.302267         0.431961        -2.119916
 C         1.516268         1.167690        -2.989414
 C         1.725918         1.323720        -4.438715
 O         2.424550         0.203727        -3.756496
 C         2.324470         1.997790        -2.010325
 C         2.228944         1.150715        -0.675210
 O         2.542416        -0.330405        -0.770645
 H         1.171391        -0.154613         1.285248
 H        -0.309525         0.651482         0.668329
 H        -0.214394        -1.060656         0.436217
 H        -0.201671        -0.350693        -2.688331
 H        -0.418076         1.208433        -1.832892
 H         0.789302         1.060807        -5.033787
 H         2.341276         2.219585        -4.791948
 H         3.386647         2.063043        -2.308878
 H         1.768794         2.986496        -1.961383
 H         2.861354         1.581835         0.091757
