19
Iteration:  1347
 C         0.132465        -0.093215         0.317299
 C         1.073064         0.226444        -0.696570
 C         0.883481        -0.107325        -2.238021
 C         1.791983         0.914034        -3.016490
 C         1.253582         1.649731        -4.195745
 O         2.137659         0.493567        -4.337028
 C         2.779426         1.553147        -2.054959
 C         2.217188         1.273699        -0.595685
 O         2.394802        -0.068350        -0.268924
 H         0.513649         0.640026         1.184163
 H        -0.828348         0.345088         0.033439
 H        -0.042597        -1.007122         0.683502
 H         1.166802        -1.164853        -2.320252
 H        -0.144895        -0.092476        -2.571528
 H         0.265207         1.574563        -4.732370
 H         1.766779         2.623974        -4.308508
 H         3.772374         1.158900        -2.178403
 H         2.972829         2.555916        -2.263808
 H         2.305415         1.887504         0.312122
