19
Iteration:   711
 C         0.008601         0.155620         0.387557
 C         1.134621         0.206236        -0.734490
 C         0.861545        -0.078882        -2.267988
 C         1.625524         0.941037        -3.042103
 C         1.274624         1.690260        -4.194690
 O         2.266178         0.503368        -4.268738
 C         2.671939         1.682056        -1.988863
 C         2.313667         1.123856        -0.617825
 O         2.515960        -0.342965        -0.315359
 H        -0.445688         1.235780         0.356679
 H        -0.821062        -0.614785         0.158038
 H         0.396067        -0.089965         1.303271
 H         1.179658        -1.040769        -2.689505
 H        -0.204278        -0.108114        -2.519914
 H         0.374494         1.266608        -4.665369
 H         1.623781         2.713461        -4.483718
 H         3.580924         1.216443        -2.288967
 H         2.462778         2.765206        -2.200709
 H         2.505161         1.762614         0.262245
