19
Iteration:  3284charge 0 multiplicity 1
 C         0.309595        -0.278409         0.508221
 C         1.088940         0.276056        -0.681865
 C         0.588247         0.254331        -2.175934
 C         1.637217         1.010429        -2.984723
 C         1.506153         1.391164        -4.396428
 O         2.421933         0.292351        -4.013997
 C         2.424708         1.894409        -1.985319
 C         2.143762         1.300371        -0.661377
 O         2.467308        -0.199789        -0.699854
 H         0.755366        -1.243049         0.710862
 H         0.545420         0.199203         1.447395
 H        -0.860502        -0.065719         0.475896
 H         0.506181        -0.762819        -2.490407
 H        -0.428720         0.645049        -2.195847
 H         0.632612         1.061580        -4.985301
 H         1.985519         2.304439        -4.735706
 H         3.498304         1.627734        -2.026100
 H         2.284840         3.005854        -2.137656
 H         2.319389         1.883816         0.263604
