19
Iteration:    83charge 0 multiplicity 1
 C         0.407823        -0.440093         0.325057
 C         1.117037         0.349047        -0.770779
 C         0.439173         0.802054        -2.185587
 C         1.540066         1.289713        -2.897208
 C         1.704176         1.207751        -4.380583
 O         2.239056         0.131637        -3.596499
 C         2.485364         1.896383        -1.912521
 C         2.338335         1.117889        -0.622515
 O         2.321640        -0.315151        -1.030995
 H         0.596885        -1.497340         0.100669
 H         0.802801        -0.342569         1.407010
 H        -0.691683        -0.046611         0.356772
 H        -0.076944        -0.140070        -2.516894
 H        -0.246928         1.607744        -1.898882
 H         0.729620         1.149268        -5.025438
 H         2.640880         1.688503        -4.822229
 H         3.478213         1.806315        -2.450121
 H         2.425999         3.020652        -1.739387
 H         2.822450         1.331178         0.339422
