19
Iteration:  3029charge 0 multiplicity 1
 C         0.215236        -0.127909         0.516749
 C         1.124738         0.224727        -0.710037
 C         0.601522         0.163182        -2.168481
 C         1.601789         1.008552        -2.961767
 C         1.505448         1.447593        -4.375785
 O         2.381832         0.405872        -4.018445
 C         2.427146         1.782112        -2.011766
 C         2.240286         1.200544        -0.695431
 O         2.496935        -0.246624        -0.658405
 H         0.888674        -0.727750         1.275944
 H        -0.117847         0.821648         1.068243
 H        -0.677409        -0.561477         0.140899
 H         0.446046        -0.785716        -2.602924
 H        -0.340916         0.659253        -2.276607
 H         0.679379         1.113147        -5.010390
 H         1.977127         2.389536        -4.670747
 H         3.572513         1.871356        -2.142263
 H         2.353849         2.932573        -1.901925
 H         2.414201         1.667057         0.205858
