19
Iteration:   401
 C        -0.067890         0.287162         0.141007
 C         1.200365         0.258336        -0.764382
 C         1.000876        -0.277173        -2.253392
 C         1.777372         0.774789        -3.000987
 C         1.138037         1.819329        -3.910383
 O         2.077139         0.725446        -4.378130
 C         2.871998         1.310580        -2.054600
 C         2.334269         1.172651        -0.647706
 O         2.428548        -0.277788        -0.209234
 H        -0.821661        -0.413112        -0.114152
 H         0.278555         0.076177         1.196345
 H        -0.586565         1.330398         0.076910
 H         1.410863        -1.312166        -2.350545
 H        -0.066620        -0.390104        -2.524442
 H         0.045817         1.666233        -4.237435
 H         1.512177         2.885107        -3.987880
 H         3.744802         0.745852        -2.261927
 H         2.837628         2.447813        -2.224660
 H         2.341540         1.973282         0.093499
