19
Iteration:  1222
 C         0.245123         0.001849         0.490179
 C         1.098086         0.227672        -0.725872
 C         0.614187         0.086244        -2.216891
 C         1.595865         0.954092        -2.916186
 C         1.514077         1.470164        -4.248655
 O         2.366703         0.280982        -4.085687
 C         2.459177         1.865396        -1.979488
 C         2.230962         1.226339        -0.635044
 O         2.506206        -0.213065        -0.743989
 H         0.639297        -0.092523         1.430048
 H        -0.592249         0.739688         0.405657
 H        -0.190102        -1.081336         0.345724
 H         0.769785        -0.986967        -2.387915
 H        -0.428913         0.496160        -2.270393
 H         0.604265         1.348871        -4.811087
 H         2.062814         2.377872        -4.412289
 H         3.510267         1.977889        -2.244339
 H         1.872175         2.820701        -1.952188
 H         2.548998         1.644684         0.328636
