19
Iteration:  1491charge 0 multiplicity 1
 C        -0.037490         0.094738         0.219198
 C         1.087456         0.200975        -0.687202
 C         0.980846        -0.313043        -2.177114
 C         1.686303         0.805966        -2.965025
 C         1.120681         1.639291        -4.054545
 O         2.181687         0.785739        -4.407938
 C         2.902606         1.386292        -2.145981
 C         2.273444         1.229319        -0.695287
 O         2.470644        -0.042783        -0.138859
 H         0.428757         0.506632         1.229710
 H        -0.910338         0.708690        -0.171117
 H        -0.338700        -0.916103         0.322056
 H         1.621573        -1.146020        -2.477763
 H        -0.037956        -0.610445        -2.534186
 H         0.125485         1.329968        -4.435488
 H         1.192393         2.754978        -4.114403
 H         3.813368         0.780724        -2.131770
 H         3.306662         2.373011        -2.331441
 H         2.041489         2.140943        -0.148951
