19
Iteration:  1972charge 0 multiplicity 1
 C         0.134103         0.013872         0.317658
 C         1.127792         0.123838        -0.679995
 C         0.780825         0.087336        -2.127976
 C         1.699027         0.992231        -2.935323
 C         1.275708         1.371782        -4.348404
 O         2.439238         0.415840        -4.153731
 C         2.419967         1.924220        -1.974476
 C         2.207226         1.168410        -0.604160
 O         2.572042        -0.256271        -0.546565
 H        -0.887873        -0.355042        -0.007881
 H         0.434009        -0.666608         1.281171
 H         0.037017         0.930507         0.777221
 H         0.703021        -0.833266        -2.783437
 H        -0.229490         0.472177        -2.288168
 H         0.285686         1.064487        -4.803375
 H         1.627792         2.417451        -4.601585
 H         3.495423         1.839804        -2.283305
 H         2.147650         2.976434        -1.814401
 H         2.331172         1.732497         0.340436
