19
Iteration:  2311charge 0 multiplicity 1
 C         0.293468        -0.083121         0.478953
 C         1.102127         0.132118        -0.741655
 C         0.593396         0.205802        -2.179710
 C         1.617390         0.992913        -2.956614
 C         1.516775         1.272245        -4.383232
 O         2.551667         0.377813        -3.884987
 C         2.289468         1.975742        -1.961180
 C         2.176347         1.176823        -0.698081
 O         2.495568        -0.197231        -0.781395
 H        -0.155990         0.941763         0.766971
 H        -0.599795        -0.852674         0.503377
 H         0.970598        -0.454069         1.203578
 H         0.249119        -0.800389        -2.606031
 H        -0.338727         0.793885        -2.027203
 H         0.710688         0.757729        -4.941684
 H         1.906937         2.203671        -4.798714
 H         3.252485         2.362978        -2.369932
 H         1.695589         2.854087        -1.682467
 H         2.346214         1.547153         0.289118
