19
Iteration:  3501
 C         0.221641        -0.231858         0.388149
 C         1.102703         0.222706        -0.742830
 C         0.609801         0.183538        -2.157958
 C         1.662614         0.980523        -3.004076
 C         1.406839         1.465270        -4.344465
 O         2.365121         0.367601        -4.116157
 C         2.572346         1.760812        -1.998973
 C         2.207180         1.233826        -0.629843
 O         2.467727        -0.089762        -0.463423
 H         0.546777        -1.385101         0.436362
 H         0.458555         0.213518         1.310232
 H        -0.762419        -0.012396         0.187089
 H         0.451479        -0.798988        -2.618007
 H        -0.284191         0.682076        -2.336160
 H         0.428467         1.122072        -4.714258
 H         1.816596         2.389072        -4.788490
 H         3.608600         1.464907        -2.273877
 H         2.617004         2.871898        -1.912063
 H         2.245764         1.950899         0.246004
