19
Iteration:  4041charge 0 multiplicity 1
 C         0.166927        -0.128543         0.294979
 C         1.142313         0.240667        -0.732584
 C         0.734542        -0.056441        -2.156747
 C         1.642615         0.941447        -2.997213
 C         1.278345         1.520338        -4.370165
 O         2.321812         0.548330        -4.123595
 C         2.634123         1.668066        -2.087822
 C         2.208966         1.250735        -0.640318
 O         2.473868        -0.080264        -0.295912
 H        -0.528524        -0.920365        -0.056490
 H         0.797476        -0.523590         1.137672
 H        -0.434516         0.593756         0.845751
 H         1.288218        -1.086480        -2.372108
 H        -0.318131        -0.039570        -2.195153
 H         0.421573         1.071728        -4.858346
 H         1.735223         2.414424        -4.762307
 H         3.671187         1.424343        -2.179184
 H         2.440626         2.713787        -2.352491
 H         2.349069         1.957951         0.170306
