19
Iteration:  4328
 C         0.323525        -0.206750         0.492712
 C         1.193784         0.116739        -0.779754
 C         0.485974         0.287718        -2.123141
 C         1.541461         1.060425        -2.983752
 C         1.658493         1.324060        -4.493441
 O         2.433832         0.259378        -3.823161
 C         2.183848         2.075058        -1.905201
 C         2.187974         1.135568        -0.621728
 O         2.594484        -0.191136        -0.839992
 H        -0.503764        -0.819866         0.220280
 H         0.914551        -0.550133         1.375704
 H        -0.123709         0.812138         0.756351
 H         0.160790        -0.636334        -2.601745
 H        -0.258659         1.038886        -2.001144
 H         1.017057         0.810834        -5.168829
 H         2.372187         2.036953        -4.845974
 H         3.078132         2.524023        -2.290866
 H         1.406791         2.875287        -1.923049
 H         2.439839         1.612105         0.440728
