19
Iteration:  2798
 C         0.115778        -0.031596         0.289542
 C         1.224851         0.117572        -0.704967
 C         0.752383         0.092458        -2.210109
 C         1.654280         1.030576        -2.964613
 C         1.299746         1.455686        -4.326192
 O         2.316070         0.406779        -4.079492
 C         2.550731         1.866248        -1.938052
 C         2.243990         1.177981        -0.633244
 O         2.528639        -0.254904        -0.510765
 H         0.522518        -0.224711         1.334473
 H        -0.386919         0.931486         0.308121
 H        -0.589995        -0.947184         0.259217
 H         0.512220        -0.929486        -2.602526
 H        -0.227832         0.792993        -2.115204
 H         0.268195         1.139932        -4.553662
 H         1.756083         2.285239        -4.899150
 H         3.617279         1.631000        -2.252980
 H         2.372066         2.913682        -2.110438
 H         2.396039         1.783060         0.310320
