19
Iteration:  3046charge 0 multiplicity 1
 C         0.233043        -0.065317         0.394696
 C         1.075427         0.156494        -0.772928
 C         0.668056         0.197175        -2.157485
 C         1.681254         1.053856        -2.980225
 C         1.301077         1.358720        -4.399981
 O         2.420652         0.429497        -4.070446
 C         2.574156         1.859473        -1.907974
 C         2.192072         1.153550        -0.577878
 O         2.512179        -0.260838        -0.596084
 H         0.705337        -0.716094         1.054030
 H         0.071264         0.804455         0.979552
 H        -0.860963        -0.387801         0.132051
 H         0.501521        -0.836980        -2.655741
 H        -0.407154         0.609556        -2.140257
 H         0.379997         0.926199        -4.845698
 H         1.645016         2.327053        -4.801680
 H         3.541901         1.654705        -2.273117
 H         2.255438         2.862583        -2.000635
 H         2.398799         1.806033         0.417261
