19
Iteration:  3853
 C         0.288661        -0.344405         0.334328
 C         1.136610         0.186631        -0.742205
 C         0.496717         0.410798        -2.129906
 C         1.636685         1.062586        -2.940173
 C         1.534243         1.254629        -4.370342
 O         2.388321         0.201043        -3.753261
 C         2.320422         2.049414        -2.023369
 C         2.309814         1.296712        -0.689437
 O         2.512174        -0.157564        -0.746481
 H        -0.357089        -1.085856        -0.285883
 H         0.884598        -0.991211         1.146710
 H        -0.290066         0.346851         0.901971
 H         0.332163        -0.651479        -2.622101
 H        -0.484969         0.986397        -2.199584
 H         0.720412         0.868022        -5.029613
 H         2.135180         2.089103        -4.819005
 H         3.351526         2.209988        -2.417849
 H         1.896387         3.074751        -1.782978
 H         2.579330         1.778164         0.225199
