19
Iteration:  1746
 C         0.211858        -0.097914         0.525048
 C         1.057233         0.259754        -0.676843
 C         0.555558         0.159720        -2.180070
 C         1.623148         1.023656        -2.946681
 C         1.559809         1.500823        -4.367408
 O         2.334244         0.372529        -4.042600
 C         2.526679         1.780614        -1.960544
 C         2.258782         1.137310        -0.680777
 O         2.473928        -0.237714        -0.712197
 H         0.529737         0.559309         1.288116
 H        -0.934813        -0.007234         0.411842
 H         0.396270        -1.202287         0.993340
 H         0.811893        -0.800298        -2.763937
 H        -0.529441         0.443392        -2.129931
 H         0.655903         1.298722        -4.971252
 H         2.128069         2.411391        -4.597878
 H         3.603063         1.752720        -2.282205
 H         2.151835         2.836427        -2.249593
 H         2.587354         1.698850         0.203974
