19
Iteration:   172
 C         0.125708         0.101506         0.470258
 C         1.119610         0.160181        -0.689868
 C         0.733545         0.183373        -2.220018
 C         1.703005         1.041587        -2.987015
 C         1.344533         1.581026        -4.263172
 O         2.332179         0.531347        -4.189724
 C         2.647244         1.612099        -1.974198
 C         2.248202         1.059673        -0.678726
 O         2.362654        -0.399366        -0.531612
 H        -0.749833        -0.421517         0.163442
 H         0.700477        -0.388848         1.439802
 H        -0.214621         1.040062         0.845515
 H         0.990762        -0.886627        -2.516995
 H        -0.306673         0.265936        -2.536581
 H         0.443008         1.283547        -4.808209
 H         1.873245         2.553101        -4.499314
 H         3.701861         1.620760        -2.186683
 H         2.451535         2.746752        -1.990082
 H         2.774599         1.514951         0.121344
