19
Iteration:  3627
 C         0.023032         0.046429         0.397667
 C         1.173457         0.184450        -0.689697
 C         0.833370        -0.084649        -2.202304
 C         1.685396         0.950167        -2.969839
 C         1.306747         1.467471        -4.320501
 O         2.344578         0.517422        -4.178814
 C         2.502739         1.816601        -2.024301
 C         2.262048         1.196527        -0.660658
 O         2.524158        -0.236403        -0.404201
 H        -0.589461        -0.768408         0.059728
 H         0.684137        -0.204714         1.335596
 H        -0.755055         0.990527         0.449661
 H         1.218419        -1.053407        -2.512693
 H        -0.264754        -0.115147        -2.404716
 H         0.444352         1.105427        -4.890680
 H         1.587123         2.516479        -4.470701
 H         3.577978         1.737734        -2.229642
 H         2.287334         2.859017        -2.182796
 H         2.323198         1.830641         0.194959
