19
Iteration:  4961
 C         0.126969        -0.079644         0.337609
 C         1.190470         0.127324        -0.721524
 C         0.676001         0.060405        -2.199023
 C         1.581216         1.043986        -2.887789
 C         1.371719         1.390160        -4.356132
 O         2.378286         0.507426        -4.074051
 C         2.444188         1.852669        -2.019712
 C         2.331516         1.247607        -0.653522
 O         2.578434        -0.302968        -0.499468
 H         0.675307        -0.207547         1.322294
 H        -0.524850         0.793750         0.396554
 H        -0.425392        -0.946030         0.093506
 H         0.540140        -0.934875        -2.693818
 H        -0.317059         0.486123        -2.157991
 H         0.581884         0.994397        -4.958685
 H         1.633654         2.405035        -4.542896
 H         3.417206         2.083353        -2.347240
 H         1.795076         2.768872        -1.741568
 H         2.511821         1.889710         0.190787
