19
Iteration:  3037charge 0 multiplicity 1
 C         0.222844        -0.035187         0.462264
 C         1.143907         0.173232        -0.721745
 C         0.659262         0.195737        -2.175733
 C         1.617271         1.009119        -2.961132
 C         1.437360         1.383765        -4.386334
 O         2.375854         0.435640        -4.051828
 C         2.513424         1.830060        -1.945008
 C         2.178691         1.131514        -0.678299
 O         2.483798        -0.219492        -0.636208
 H         0.716843        -0.882505         1.007886
 H        -0.021393         0.790855         1.129658
 H        -0.632406        -0.734851         0.166275
 H         0.573927        -0.865016        -2.509898
 H        -0.280958         0.799505        -2.175803
 H         0.625995         0.947759        -5.016893
 H         1.723863         2.402335        -4.684524
 H         3.531295         1.622281        -2.291543
 H         2.280093         2.857070        -1.752307
 H         2.307406         1.664833         0.384484
