19
Iteration:  1953
 C         0.085948        -0.028444         0.472938
 C         1.196255         0.177930        -0.729846
 C         0.649742         0.127454        -2.169677
 C         1.643104         1.020597        -2.963718
 C         1.395582         1.335019        -4.444390
 O         2.436361         0.474881        -4.138650
 C         2.428191         1.849693        -1.916436
 C         2.260921         1.164927        -0.595607
 O         2.583325        -0.256970        -0.611044
 H        -0.693261        -0.626273         0.122639
 H         0.456434        -0.367094         1.545783
 H        -0.358180         1.009840         0.831322
 H         0.572002        -0.911260        -2.649717
 H        -0.335245         0.577454        -2.097934
 H         0.607352         0.709732        -4.838247
 H         1.606068         2.275911        -5.023852
 H         3.488526         2.000732        -1.951833
 H         1.870959         2.771580        -1.775643
 H         2.416426         1.623000         0.367478
