19
Iteration:     5charge 0 multiplicity 1
 C         0.231561        -0.155651         0.395692
 C         1.128176         0.237538        -0.703692
 C         0.537385         0.403535        -2.152970
 C         1.647545         1.103570        -2.924479
 C         1.519764         1.428108        -4.353102
 O         2.292065         0.306554        -3.938868
 C         2.565598         1.804640        -1.916824
 C         2.319781         1.067202        -0.667826
 O         2.418466        -0.331740        -0.767785
 H        -0.145795        -1.182019         0.187530
 H         0.771883        -0.049196         1.305674
 H        -0.640729         0.596600         0.472541
 H         0.235007        -0.519567        -2.645622
 H        -0.332473         1.094071        -2.181333
 H         0.551252         1.382847        -4.977110
 H         2.159447         2.266471        -4.749840
 H         3.631420         1.979999        -2.265613
 H         2.319869         2.868760        -1.868993
 H         2.532086         1.603507         0.289119
