19
Iteration:  3712charge 0 multiplicity 1
 C         0.256006        -0.198286         0.320233
 C         1.046848         0.303930        -0.760133
 C         0.649779         0.154906        -2.149599
 C         1.652302         1.097375        -2.991958
 C         1.337568         1.394839        -4.390917
 O         2.397347         0.374656        -4.052522
 C         2.568285         1.759095        -2.003834
 C         2.268470         1.223945        -0.603981
 O         2.465269        -0.171145        -0.448221
 H         0.670371        -1.256873         0.361328
 H         0.096648         0.247303         1.351890
 H        -0.734443        -0.180193         0.100299
 H         0.565161        -0.868574        -2.532402
 H        -0.343760         0.609580        -2.326400
 H         0.468596         0.895756        -4.861501
 H         1.513638         2.438161        -4.696121
 H         3.640083         1.544875        -2.203762
 H         2.487515         2.903285        -2.039886
 H         2.336369         1.902759         0.206717
