19
Iteration:    60charge 0 multiplicity 1
 C         0.339991        -0.444551         0.325308
 C         1.044176         0.294102        -0.786560
 C         0.343480         0.789696        -2.064832
 C         1.596000         1.221119        -2.836666
 C         1.742740         1.240127        -4.345951
 O         2.214865         0.111291        -3.532788
 C         2.656781         1.957387        -1.947559
 C         2.356351         1.110369        -0.822270
 O         2.356538        -0.254830        -1.076335
 H         0.736356        -1.472633         0.110885
 H         0.577469        -0.355782         1.365226
 H        -0.863761        -0.290432         0.177191
 H        -0.180953        -0.087679        -2.473555
 H        -0.344103         1.557176        -1.682412
 H         0.885723         0.646771        -4.918180
 H         2.313675         2.122633        -4.836694
 H         3.757917         2.091526        -2.309593
 H         2.170934         2.951049        -1.765683
 H         2.691515         1.429255         0.201974
