19
Iteration:  1961charge 0 multiplicity 1
 C         0.059624         0.037347         0.446288
 C         1.202857         0.103313        -0.722951
 C         0.727008         0.108841        -2.165028
 C         1.638092         1.062418        -2.999443
 C         1.378033         1.311771        -4.366715
 O         2.436938         0.454701        -4.189265
 C         2.425700         1.898291        -1.887216
 C         2.195285         1.142355        -0.577282
 O         2.593239        -0.254026        -0.592103
 H        -0.863244        -0.529758         0.052625
 H         0.582888        -0.674863         1.283866
 H        -0.223230         0.982563         0.725456
 H         0.564149        -0.991169        -2.298391
 H        -0.215820         0.645205        -2.092842
 H         0.422886         0.855941        -4.792570
 H         1.627140         2.303828        -4.867088
 H         3.457913         1.981511        -2.297802
 H         2.057086         2.930676        -1.946615
 H         2.449743         1.628786         0.379723
