19
Iteration:  1238charge 0 multiplicity 1
 C         0.169621         0.026816         0.492052
 C         1.083860         0.252844        -0.697484
 C         0.675805         0.016232        -2.116566
 C         1.722876         0.903369        -2.939415
 C         1.458366         1.469167        -4.268623
 O         2.400056         0.416612        -4.181950
 C         2.423140         1.824658        -1.971807
 C         2.191534         1.138607        -0.652355
 O         2.458112        -0.214116        -0.706081
 H         1.146152         0.233101         1.237729
 H        -0.349527         0.959898         0.728820
 H        -0.368346        -0.835765         0.649944
 H         0.848011        -0.998598        -2.492142
 H        -0.377501         0.210474        -2.325085
 H         0.560834         1.238866        -4.917253
 H         1.882428         2.517829        -4.488677
 H         3.478187         1.565809        -2.226500
 H         2.165691         2.869323        -1.982775
 H         2.428981         1.731861         0.247542
