19
Iteration:  4940charge 0 multiplicity 1
 C         0.146708        -0.080455         0.273068
 C         1.115409         0.160097        -0.685894
 C         0.704143         0.153150        -2.132383
 C         1.645510         1.013002        -2.946950
 C         1.238766         1.350890        -4.340078
 O         2.483144         0.436148        -4.015326
 C         2.435569         1.898583        -1.907388
 C         2.296174         1.218297        -0.606377
 O         2.585393        -0.245530        -0.689271
 H         0.706723        -0.406296         1.251183
 H        -0.456245         0.793831         0.469907
 H        -0.553438        -0.788210        -0.095041
 H         0.640630        -0.928725        -2.376429
 H        -0.240858         0.542394        -2.303450
 H         0.356975         0.850807        -4.689024
 H         1.443173         2.292959        -4.795431
 H         3.473216         1.920135        -2.196199
 H         1.908859         2.965600        -1.840924
 H         2.499715         1.463258         0.380833
