19
Iteration:  2962charge 0 multiplicity 1
 C         0.251762        -0.323630         0.388649
 C         1.111038         0.182820        -0.797896
 C         0.491440         0.475765        -2.168136
 C         1.609712         1.158988        -2.892033
 C         1.480880         1.202307        -4.408302
 O         2.377805         0.254978        -3.803658
 C         2.526169         1.975027        -1.911994
 C         2.268893         1.168740        -0.692679
 O         2.504606        -0.212777        -0.804193
 H         0.596718         0.264704         1.325095
 H        -0.804296        -0.000637         0.238435
 H         0.400220        -1.405864         0.617869
 H         0.074834        -0.367431        -2.707448
 H        -0.212182         1.209148        -1.811317
 H         0.647018         0.787664        -5.020237
 H         1.941082         2.090043        -4.839641
 H         3.620332         2.142067        -2.287366
 H         2.180328         3.123261        -1.834041
 H         2.410969         1.711853         0.213616
