19
Iteration:  1716charge 0 multiplicity 1
 C         0.144441        -0.076192         0.286174
 C         1.123115         0.280041        -0.738097
 C         0.689982         0.163130        -2.122748
 C         1.790761         0.959682        -3.006904
 C         1.267411         1.507536        -4.246255
 O         2.270014         0.376267        -4.127281
 C         2.674941         1.741266        -1.979467
 C         2.234081         1.240903        -0.624958
 O         2.479499        -0.267472        -0.502236
 H         0.509146         0.386726         1.163261
 H        -0.806418         0.133949        -0.047855
 H         0.181059        -1.255979         0.486594
 H         0.670956        -0.783532        -2.635461
 H        -0.324855         0.570245        -2.162990
 H         0.332178         1.187939        -4.663850
 H         1.706873         2.430575        -4.649617
 H         3.769652         1.510225        -2.001872
 H         2.380342         2.799898        -2.174163
 H         2.343097         1.799510         0.327387
