19
Iteration:  4310
 C         0.282408        -0.134058         0.387722
 C         1.169375         0.165989        -0.750051
 C         0.538417         0.180208        -2.201402
 C         1.511151         1.099486        -2.944623
 C         1.604529         1.304132        -4.400249
 O         2.431950         0.341432        -3.740820
 C         2.228165         1.950685        -1.975244
 C         2.253225         1.202141        -0.696795
 O         2.579930        -0.228825        -0.779984
 H        -0.598072        -0.795900         0.197097
 H         0.899298        -0.712140         1.158978
 H        -0.008377         0.734233         0.871377
 H         0.538196        -0.776545        -2.685699
 H        -0.556595         0.570267        -2.079270
 H         0.743195         1.040834        -5.028110
 H         2.002512         2.259384        -4.754814
 H         3.259312         2.263296        -2.336995
 H         1.791931         2.910584        -1.768853
 H         2.547193         1.794438         0.110292
