19
Iteration:  4847charge 0 multiplicity 1
 C         0.305409        -0.334375         0.442790
 C         1.089699         0.159560        -0.727426
 C         0.527969         0.332615        -2.123305
 C         1.643936         1.089872        -2.942573
 C         1.612463         1.331689        -4.402164
 O         2.286546         0.248680        -3.904037
 C         2.424167         1.997871        -1.937986
 C         2.236317         1.252851        -0.597861
 O         2.515778        -0.159531        -0.847286
 H         0.452576         0.220859         1.300602
 H        -0.766850        -0.347385         0.243931
 H         0.476090        -1.431123         0.581952
 H         0.325047        -0.599547        -2.650906
 H        -0.335747         1.071062        -2.192114
 H         0.721099         1.075437        -5.013167
 H         2.302622         2.158355        -4.667203
 H         3.491178         2.149878        -2.279259
 H         1.944814         2.954361        -1.840969
 H         2.323017         1.676081         0.379368
