19
Iteration:  3848charge 0 multiplicity 1
 C         0.310609        -0.328887         0.356687
 C         1.140874         0.211612        -0.792472
 C         0.513204         0.400870        -2.155062
 C         1.612532         1.076230        -2.916951
 C         1.536699         1.245631        -4.328166
 O         2.405901         0.199097        -3.764420
 C         2.336955         2.012500        -1.994641
 C         2.279489         1.289950        -0.697949
 O         2.506713        -0.155738        -0.768860
 H        -0.277097        -0.999565        -0.202965
 H         0.837863        -0.968430         0.947012
 H        -0.329221         0.408193         0.931138
 H         0.359369        -0.534701        -2.592888
 H        -0.309305         1.090719        -2.180768
 H         0.686271         0.819080        -4.838920
 H         2.009381         2.062095        -4.845235
 H         3.341626         2.228898        -2.349102
 H         1.685278         2.883801        -1.925449
 H         2.485036         1.737375         0.318534
