19
Iteration:  4231charge 0 multiplicity 1
 C         0.217544        -0.181987         0.294357
 C         1.223925         0.156995        -0.710341
 C         0.706495         0.115164        -2.222261
 C         1.671139         0.979484        -2.989567
 C         1.383219         1.527106        -4.349411
 O         2.279041         0.388732        -4.062094
 C         2.501219         1.739418        -2.006412
 C         2.151335         1.229887        -0.636448
 O         2.538475        -0.101326        -0.388927
 H         0.203592        -1.265854         0.201170
 H         0.457315         0.199749         1.334290
 H        -0.840473         0.109755         0.063825
 H         0.637216        -0.872650        -2.674542
 H        -0.340413         0.635714        -2.070728
 H         0.517417         1.180839        -4.865175
 H         1.976798         2.317449        -4.745723
 H         3.548204         1.719084        -2.403441
 H         2.146675         2.790115        -1.965162
 H         2.208661         2.112786         0.171776
