19
Iteration:  3389
 C         0.450683        -0.198017         0.496793
 C         1.048266         0.203671        -0.802150
 C         0.499228         0.334719        -2.253388
 C         1.639931         1.065109        -2.960192
 C         1.588782         1.279533        -4.434277
 O         2.453793         0.223718        -3.789925
 C         2.329892         1.979129        -1.893660
 C         2.113313         1.208578        -0.611055
 O         2.439629        -0.181200        -0.852374
 H        -0.383137        -1.026876         0.555253
 H         1.422859        -0.489668         1.009810
 H        -0.022565         0.485940         1.094857
 H         0.161509        -0.658654        -2.693011
 H        -0.429175         0.918535        -2.266996
 H         0.743683         0.943652        -5.076005
 H         2.182942         2.098710        -4.833942
 H         3.386177         2.248675        -2.235233
 H         1.970710         3.013619        -1.697764
 H         2.478980         1.626125         0.293307
