19
Iteration:  3329charge 0 multiplicity 1
 C         0.233645        -0.303691         0.242811
 C         1.225419         0.224699        -0.708569
 C         0.535003         0.391146        -2.103488
 C         1.605987         1.125114        -2.951249
 C         1.496912         1.248074        -4.399888
 O         2.316056         0.172993        -3.820684
 C         2.415395         2.005939        -2.030190
 C         2.211555         1.255405        -0.599665
 O         2.619823        -0.173230        -0.684463
 H         0.447474        -1.322830         0.070769
 H         0.228043        -0.129163         1.294337
 H        -0.819326         0.018460        -0.291819
 H         0.232917        -0.555328        -2.528364
 H        -0.233931         1.090004        -1.834538
 H         0.563933         0.958438        -4.884213
 H         2.095676         2.032884        -4.873564
 H         3.368957         2.162885        -2.519460
 H         1.801477         2.894825        -1.706603
 H         2.511473         1.807184         0.346623
