19
Iteration:  4969
 C         0.151707        -0.094357         0.387019
 C         1.193563         0.097800        -0.683446
 C         0.671402         0.047615        -2.182948
 C         1.543036         1.024715        -3.031450
 C         1.399490         1.467439        -4.355548
 O         2.380830         0.462938        -4.092933
 C         2.475003         1.894914        -1.968489
 C         2.295849         1.178009        -0.694349
 O         2.562220        -0.249755        -0.454559
 H         0.657578        -0.088967         1.317968
 H        -0.677056         0.678565         0.400522
 H        -0.480075        -1.016750         0.341889
 H         0.778194        -0.948159        -2.700841
 H        -0.433867         0.443985        -2.241969
 H         0.485325         1.232155        -4.925126
 H         1.706311         2.491869        -4.679186
 H         3.399738         2.181434        -2.463360
 H         2.010811         2.870692        -1.894321
 H         2.562831         1.663729         0.339195
