19
Iteration:  1653charge 0 multiplicity 1
 C         0.070819         0.050533         0.317914
 C         1.146072         0.210329        -0.775892
 C         0.859082        -0.206565        -2.210661
 C         1.698123         0.897057        -2.986075
 C         1.233385         1.651461        -4.111410
 O         2.249264         0.499256        -4.253268
 C         2.678809         1.630958        -2.083942
 C         2.236076         1.211694        -0.653548
 O         2.464828        -0.119525        -0.343786
 H         0.584099        -0.253562         1.348834
 H        -0.430617         1.016400         0.552955
 H        -0.705415        -0.621690         0.187047
 H         1.329317        -1.135162        -2.466137
 H        -0.182130        -0.163278        -2.506728
 H         0.316138         1.455516        -4.647320
 H         1.639264         2.690400        -4.228122
 H         3.672492         1.206659        -2.185327
 H         2.816933         2.662160        -2.163869
 H         2.312385         2.041129         0.085138
