19
Iteration:  2588
 C         0.105321        -0.181071         0.396386
 C         1.113795         0.294434        -0.672105
 C         0.820262        -0.018842        -2.193931
 C         1.655992         0.885565        -3.017782
 C         1.287938         1.495952        -4.348976
 O         2.295556         0.487315        -4.241346
 C         2.641321         1.689882        -2.092849
 C         2.212175         1.278443        -0.648731
 O         2.505838        -0.066887        -0.252376
 H        -0.738379         0.238938         0.014437
 H         0.136467        -1.247104         0.319910
 H         0.254028         0.222456         1.509076
 H         1.188285        -1.003514        -2.495789
 H        -0.318714        -0.029563        -2.227544
 H         0.431980         1.264788        -4.962943
 H         1.639361         2.490659        -4.541585
 H         3.702174         1.503138        -2.202811
 H         2.379142         2.729154        -2.253542
 H         2.311919         2.096774         0.063269
