19
Iteration:  4838
 C         0.341457        -0.343462         0.372447
 C         1.076045         0.282544        -0.744616
 C         0.534923         0.352888        -2.199052
 C         1.633486         1.131658        -2.932800
 C         1.522437         1.346886        -4.378149
 O         2.368775         0.193436        -3.852850
 C         2.401386         1.994164        -1.902250
 C         2.201905         1.217698        -0.611593
 O         2.527079        -0.211712        -0.820963
 H         0.436394         0.241878         1.251499
 H        -0.741996        -0.261834         0.048060
 H         0.718316        -1.350802         0.688585
 H         0.209690        -0.607458        -2.603183
 H        -0.474103         0.838141        -2.087046
 H         0.537167         1.187405        -4.839277
 H         2.125342         2.035104        -4.992629
 H         3.484978         2.088274        -2.152997
 H         1.973724         3.069869        -1.785260
 H         2.708819         1.577822         0.384929
