19
Iteration:  3948
 C         0.158831        -0.157211         0.504462
 C         1.124559         0.240978        -0.682330
 C         0.629001         0.122543        -2.112153
 C         1.577392         1.018552        -2.990456
 C         1.446494         1.364791        -4.505651
 O         2.417164         0.463280        -4.032196
 C         2.471724         1.892323        -1.979165
 C         2.329575         1.196908        -0.633965
 O         2.480273        -0.235762        -0.621246
 H         0.399130        -1.215530         0.587004
 H         0.354907         0.438469         1.342490
 H        -0.986197        -0.106093         0.270146
 H         0.641963        -0.884608        -2.681590
 H        -0.467129         0.521559        -2.028446
 H         0.618164         0.929032        -5.086600
 H         1.980137         2.284978        -4.815218
 H         3.486410         1.958477        -2.489628
 H         2.118309         2.949364        -1.874459
 H         2.498458         1.657656         0.404328
