19
Iteration:   727
 C        -0.018874         0.202181         0.237097
 C         1.148649         0.188834        -0.687508
 C         0.925109        -0.135683        -2.121080
 C         1.719983         0.951030        -2.940113
 C         1.223920         1.572042        -4.210266
 O         2.198873         0.642050        -4.314276
 C         2.718732         1.551290        -1.997731
 C         2.291743         1.106015        -0.638140
 O         2.463027        -0.254261        -0.382366
 H        -0.409602         1.159571         0.464295
 H        -0.823218        -0.319248        -0.243854
 H         0.346085        -0.318886         1.229748
 H         1.358789        -1.159608        -2.188530
 H        -0.146558        -0.216960        -2.410957
 H         0.211265         1.460193        -4.576631
 H         1.626107         2.566313        -4.312203
 H         3.798546         1.304013        -2.329104
 H         2.724822         2.649908        -2.030482
 H         2.459240         1.761653         0.216734
