19
Iteration:  2453charge 0 multiplicity 1
 C         0.280132        -0.099585         0.381239
 C         1.105486         0.217201        -0.752883
 C         0.612415         0.164374        -2.193815
 C         1.656429         0.946630        -2.992418
 C         1.468939         1.337320        -4.276807
 O         2.422948         0.268015        -3.895452
 C         2.355911         1.951591        -1.967958
 C         2.197447         1.251998        -0.649934
 O         2.542117        -0.132093        -0.741966
 H        -0.773908         0.288604         0.290524
 H         0.076552        -1.243185         0.470001
 H         0.740990         0.173064         1.273201
 H         0.456239        -0.937235        -2.556017
 H        -0.436870         0.576949        -2.159816
 H         0.585024         0.991774        -4.837071
 H         1.994174         2.185330        -4.740998
 H         3.421267         2.107860        -2.230901
 H         1.866507         2.939380        -1.790923
 H         2.365371         1.824553         0.291025
