19
Iteration:  3223
 C         0.129511        -0.008200         0.350806
 C         1.210575         0.108137        -0.728875
 C         0.779796         0.045271        -2.182852
 C         1.707185         1.048854        -2.978196
 C         1.353562         1.391726        -4.380133
 O         2.303545         0.373085        -4.096927
 C         2.427750         1.883209        -1.897714
 C         2.238340         1.191629        -0.605623
 O         2.560933        -0.213802        -0.558695
 H        -0.605189        -0.794617         0.253770
 H         0.686600         0.026912         1.328025
 H        -0.476534         0.903977         0.387301
 H         0.861286        -0.965680        -2.740587
 H        -0.343567         0.291169        -2.093922
 H         0.409553         1.036595        -4.808195
 H         1.751530         2.310646        -4.865851
 H         3.431548         2.258668        -2.115799
 H         1.992900         2.907766        -1.729753
 H         2.158621         1.858504         0.325614
