19
Iteration:  2567
 C         0.113420        -0.136985         0.281933
 C         1.162002         0.215135        -0.762671
 C         0.872193        -0.046659        -2.171791
 C         1.703912         0.952445        -2.998037
 C         1.291987         1.507258        -4.275874
 O         2.244658         0.337271        -4.185054
 C         2.614172         1.792531        -2.055198
 C         2.169951         1.333097        -0.619071
 O         2.518737        -0.047102        -0.340545
 H        -0.730253         0.527986         0.412690
 H        -0.304466        -1.107606         0.134339
 H         0.563385        -0.278751         1.396456
 H         0.990277        -1.052861        -2.514711
 H        -0.266400         0.151698        -2.289503
 H         0.299477         1.265536        -4.612496
 H         1.628102         2.403390        -4.739035
 H         3.664901         1.493759        -1.986525
 H         2.507127         2.860260        -2.043004
 H         2.154905         2.014903         0.241025
