19
Iteration:  1277charge 0 multiplicity 1
 C         0.155224         0.032586         0.367220
 C         1.103377         0.182396        -0.757409
 C         0.802057         0.078272        -2.191675
 C         1.644607         1.008974        -3.002430
 C         1.295626         1.432761        -4.373235
 O         2.322681         0.551379        -4.195715
 C         2.558147         1.750350        -2.053717
 C         2.311237         1.088034        -0.607146
 O         2.488967        -0.259006        -0.282501
 H         0.671786         0.022981         1.267483
 H        -0.610031         0.842359         0.409844
 H        -0.630886        -0.843553         0.332961
 H         0.797897        -0.999146        -2.489974
 H        -0.324184         0.268174        -2.262856
 H         0.386603         0.939374        -4.665267
 H         1.480488         2.377450        -4.865440
 H         3.572507         1.540056        -2.404170
 H         2.685270         2.872538        -2.142540
 H         2.395185         1.740842         0.277768
