19
Iteration:  3557charge 0 multiplicity 1
 C         0.117487        -0.021330         0.388734
 C         1.135989         0.164011        -0.758581
 C         0.819958         0.009005        -2.246924
 C         1.695849         0.953748        -2.977507
 C         1.373248         1.543921        -4.327445
 O         2.227641         0.362666        -4.184966
 C         2.581865         1.800075        -1.949066
 C         2.132645         1.257537        -0.575616
 O         2.561151        -0.170838        -0.442231
 H        -0.179178        -1.210047         0.419412
 H         0.696842         0.237657         1.266578
 H        -0.900410         0.333813         0.204883
 H         1.080868        -0.996943        -2.563597
 H        -0.170452         0.196916        -2.552789
 H         0.404052         1.206872        -4.730675
 H         1.737019         2.536072        -4.681641
 H         3.669551         1.735021        -2.111434
 H         2.330012         2.903171        -1.870980
 H         2.276840         1.822633         0.393475
