19
Iteration:  4294
 C         0.294850        -0.173090         0.413464
 C         1.073377         0.258982        -0.796189
 C         0.628556         0.154524        -2.166789
 C         1.518629         1.069314        -2.895274
 C         1.459779         1.307860        -4.291652
 O         2.474304         0.376845        -3.845812
 C         2.390474         2.001636        -2.035867
 C         2.260799         1.208931        -0.720604
 O         2.503180        -0.217030        -0.736834
 H        -0.476465        -0.802533        -0.035204
 H         0.755960        -0.796684         1.136045
 H        -0.326614         0.695833         0.918731
 H         0.729248        -0.941841        -2.458455
 H        -0.394893         0.325334        -2.328041
 H         0.844104         0.800554        -5.033911
 H         1.894798         2.183195        -4.796715
 H         3.357919         2.002593        -2.456302
 H         1.906185         2.996249        -1.768806
 H         2.407302         1.366506         0.442870
