19
Iteration:  4262charge 0 multiplicity 1
 C         0.196854        -0.219652         0.453862
 C         1.121208         0.218413        -0.680403
 C         0.691401         0.233127        -2.172888
 C         1.740075         0.981657        -2.974494
 C         1.359930         1.330850        -4.396350
 O         2.438111         0.402574        -4.161850
 C         2.453137         1.875772        -1.951627
 C         2.127995         1.194333        -0.567936
 O         2.528738        -0.138535        -0.599271
 H        -0.307228        -1.130007         0.156901
 H         0.645529        -0.557281         1.383514
 H        -0.668885         0.524624         0.737281
 H         0.557362        -0.827228        -2.525398
 H        -0.285949         0.758902        -2.206880
 H         0.521529         0.883832        -4.897480
 H         1.655039         2.223365        -4.950854
 H         3.471991         2.053551        -2.199214
 H         2.200950         2.969163        -1.939581
 H         2.311765         1.821864         0.475101
