19
Iteration:  4464
 C         0.263999        -0.166822         0.487671
 C         1.054999         0.214855        -0.723687
 C         0.711130         0.032952        -2.124855
 C         1.610320         1.019845        -2.994873
 C         1.451886         1.429900        -4.437418
 O         2.415069         0.439537        -4.013557
 C         2.418273         1.883687        -2.025955
 C         2.156604         1.214256        -0.652679
 O         2.519621        -0.145761        -0.626516
 H         0.236016        -1.313677         0.718250
 H         0.547569         0.436185         1.390952
 H        -0.829401         0.056936         0.282117
 H         0.934712        -1.097113        -2.214030
 H        -0.424357         0.230621        -2.250985
 H         0.491149         1.026533        -4.840940
 H         1.982052         2.391340        -4.671089
 H         3.516735         1.713632        -2.327633
 H         2.080270         2.911213        -2.065039
 H         2.356551         1.724206         0.258559
