19
Iteration:   664
 C         0.147840        -0.086200         0.467979
 C         1.089172         0.255003        -0.702047
 C         0.583983         0.223849        -2.184278
 C         1.733686         0.982541        -2.991464
 C         1.393380         1.518554        -4.294509
 O         2.335008         0.397720        -4.127763
 C         2.617694         1.724121        -2.017444
 C         2.262193         1.178550        -0.581498
 O         2.464665        -0.286212        -0.637615
 H        -0.822316         0.158126         0.184538
 H         0.230348        -1.229508         0.821884
 H         0.397481         0.445637         1.511588
 H         0.498361        -0.776575        -2.591612
 H        -0.335322         0.684128        -2.558803
 H         0.471440         1.398871        -4.934207
 H         2.074010         2.426607        -4.465111
 H         3.600200         1.354384        -2.145762
 H         2.430835         2.793839        -1.877295
 H         2.574079         1.718687         0.315687
