19
Iteration:  1152charge 0 multiplicity 1
 C         0.343069        -0.399093         0.301990
 C         1.023621         0.352972        -0.735892
 C         0.538311         0.532697        -2.093273
 C         1.650668         1.143548        -2.878705
 C         1.504529         1.168833        -4.327936
 O         2.363505         0.097637        -3.771047
 C         2.508881         1.944199        -1.968323
 C         2.246309         1.268928        -0.632590
 O         2.443710        -0.123395        -0.932950
 H         0.740746        -0.445047         1.344676
 H        -0.684043        -0.147802         0.320314
 H         0.406912        -1.428045         0.031321
 H         0.078642        -0.290559        -2.681608
 H        -0.186516         1.380154        -2.007146
 H         0.636124         0.747770        -4.848243
 H         1.857322         2.154612        -4.729185
 H         3.641614         1.957723        -2.199394
 H         2.176530         3.044981        -1.964234
 H         2.481710         1.609399         0.395080
