19
Iteration:  1436charge 0 multiplicity 1
 C        -0.133576         0.192492         0.113289
 C         1.164234         0.179474        -0.731830
 C         1.137801        -0.229775        -2.228189
 C         1.878690         0.898485        -2.941233
 C         1.109623         1.606173        -3.998821
 O         1.986624         0.465120        -4.358133
 C         2.819603         1.670331        -1.989872
 C         2.276498         1.232377        -0.606514
 O         2.487529        -0.196578        -0.301962
 H         0.311558         0.284039         1.258798
 H        -0.868661         0.989306        -0.227566
 H        -0.609230        -0.793351         0.085309
 H         1.714651        -1.126625        -2.466301
 H         0.160107        -0.165124        -2.735718
 H         0.006668         1.377354        -4.015926
 H         1.440997         2.591083        -4.384775
 H         3.888930         1.453775        -2.210478
 H         2.830522         2.762887        -1.898267
 H         2.347229         2.049833         0.136864
