19
Iteration:   944charge 0 multiplicity 1
 C        -0.020680         0.024231         0.298484
 C         1.084468         0.320211        -0.758868
 C         0.987260        -0.175920        -2.197603
 C         1.803124         0.839650        -3.027510
 C         1.106316         1.672087        -4.095141
 O         2.205754         0.598125        -4.320104
 C         2.868566         1.535299        -2.093768
 C         2.247940         1.198359        -0.672574
 O         2.394624        -0.153110        -0.247886
 H         0.150627         0.760904         1.205584
 H        -0.995014         0.311723         0.013607
 H         0.109805        -1.021784         0.686820
 H         1.192216        -1.247410        -2.250237
 H        -0.041496        -0.117341        -2.572566
 H         0.120082         1.471749        -4.406873
 H         1.492078         2.668930        -4.245780
 H         3.790249         0.939427        -2.211586
 H         3.256143         2.492740        -2.288272
 H         2.240226         1.979301         0.101183
