19
Iteration:  1464charge 0 multiplicity 1
 C        -0.036260         0.151001         0.031802
 C         1.225512         0.178624        -0.714153
 C         1.082167        -0.203603        -2.147252
 C         1.744030         0.845204        -3.046087
 C         1.038631         1.687954        -4.076782
 O         2.078661         0.576222        -4.373420
 C         2.786152         1.468258        -2.046134
 C         2.306658         1.255310        -0.573942
 O         2.493852        -0.141506        -0.100032
 H         0.291718         0.189225         1.017493
 H        -0.730150         0.907645        -0.253914
 H        -0.535038        -0.837750        -0.127314
 H         1.606211        -1.122060        -2.474888
 H         0.027033        -0.304443        -2.397754
 H         0.008460         1.424516        -4.324227
 H         1.283203         2.697540        -4.373783
 H         3.814338         1.129265        -2.245528
 H         3.002046         2.557095        -2.086606
 H         2.156525         2.132097         0.102441
