19
Iteration:  3327
 C         0.223969        -0.294008         0.248933
 C         1.239152         0.230285        -0.734275
 C         0.542838         0.388717        -2.111856
 C         1.601344         1.122235        -2.966091
 C         1.491531         1.255943        -4.389046
 O         2.311974         0.161415        -3.825990
 C         2.406953         2.016202        -2.008730
 C         2.207812         1.258267        -0.605140
 O         2.624007        -0.178993        -0.669591
 H         0.437301        -1.415091         0.078787
 H         0.275269        -0.063309         1.295389
 H        -0.791290        -0.063450        -0.269238
 H         0.311017        -0.563932        -2.539993
 H        -0.251106         1.182185        -1.841816
 H         0.541092         0.985039        -4.869969
 H         2.100253         2.019681        -4.849337
 H         3.378597         2.127546        -2.478883
 H         1.811379         2.887553        -1.748693
 H         2.505498         1.767542         0.335336
