19
Iteration:  1326
 C         0.028595        -0.029745         0.216225
 C         1.102509         0.341180        -0.705239
 C         0.903188        -0.091791        -2.177246
 C         1.793025         0.928509        -2.928273
 C         1.306392         1.581768        -4.059267
 O         2.101186         0.405418        -4.240683
 C         2.754448         1.643342        -2.039967
 C         2.211793         1.280019        -0.662907
 O         2.506184        -0.155528        -0.429302
 H         0.215952         0.284401         1.348096
 H        -1.016692         0.190284        -0.008530
 H        -0.016330        -1.063600         0.071127
 H         0.993834        -1.119313        -2.510206
 H        -0.150943        -0.064891        -2.467867
 H         0.180846         1.602068        -4.279784
 H         1.855402         2.436184        -4.497844
 H         3.828018         1.552607        -2.246052
 H         2.754438         2.675152        -2.206105
 H         2.285888         1.990338         0.180343
