19
Iteration:  1363
 C         0.035150         0.038045         0.468120
 C         1.142720         0.176780        -0.730556
 C         0.888830        -0.135609        -2.236856
 C         1.684071         0.920311        -3.033007
 C         1.254825         1.643316        -4.280926
 O         2.236662         0.624838        -4.424479
 C         2.757035         1.469673        -2.040769
 C         2.171814         1.243930        -0.664400
 O         2.481318        -0.118684        -0.154725
 H         0.321832         0.424137         1.354304
 H        -0.998652         0.285040         0.177616
 H         0.155857        -1.134194         0.659123
 H         1.283864        -1.118485        -2.591316
 H        -0.207478         0.077339        -2.319359
 H         0.259207         1.358124        -4.565787
 H         1.568742         2.651566        -4.561369
 H         3.618134         0.744945        -2.101019
 H         3.011433         2.584110        -2.237921
 H         2.133873         2.080005         0.054979
