19
Iteration:  3234charge 0 multiplicity 1
 C         0.204254        -0.023795         0.415677
 C         1.132591         0.134886        -0.728649
 C         0.768325         0.103622        -2.184862
 C         1.630841         1.001243        -2.962893
 C         1.396804         1.396206        -4.372494
 O         2.371119         0.408064        -4.097015
 C         2.417613         1.906080        -1.979129
 C         2.182394         1.158375        -0.618035
 O         2.532663        -0.214253        -0.549374
 H        -0.269678        -1.008021         0.464152
 H         0.766661        -0.011687         1.397274
 H        -0.465974         0.831874         0.302450
 H         0.848034        -1.000808        -2.515272
 H        -0.320769         0.497161        -2.326154
 H         0.473625         1.087875        -4.876332
 H         1.861575         2.349377        -4.719592
 H         3.480095         1.886752        -2.202462
 H         1.772715         2.807045        -2.039183
 H         2.453803         1.655767         0.402080
