19
Iteration:  2712
 C         0.159403        -0.046566         0.303420
 C         1.173819         0.171486        -0.734347
 C         0.759869        -0.006734        -2.250011
 C         1.730980         0.922000        -2.980166
 C         1.182006         1.578691        -4.258630
 O         2.303231         0.449029        -4.209639
 C         2.696054         1.694959        -1.985889
 C         2.179176         1.271444        -0.616966
 O         2.481806        -0.132966        -0.362791
 H         0.493261        -0.990829         0.937797
 H         0.305327         0.775316         1.024682
 H        -0.859715         0.031802        -0.095139
 H         0.836993        -1.085995        -2.441029
 H        -0.348636         0.059672        -2.548858
 H         0.215822         1.220088        -4.631805
 H         1.556414         2.582105        -4.534932
 H         3.716620         1.174214        -2.096213
 H         2.635765         2.770222        -2.197885
 H         2.163742         1.706567         0.395100
