19
Iteration:  1652
 C         0.068749         0.063213         0.324761
 C         1.148878         0.203718        -0.774038
 C         0.856690        -0.213272        -2.222099
 C         1.701258         0.889927        -2.993008
 C         1.232462         1.660044        -4.102290
 O         2.249576         0.495990        -4.255498
 C         2.689413         1.640332        -2.082197
 C         2.224820         1.210806        -0.649448
 O         2.467498        -0.116967        -0.347772
 H         0.580665        -0.261026         1.296020
 H        -0.439238         0.980038         0.556156
 H        -0.742510        -0.631972         0.230284
 H         1.327793        -1.153066        -2.423456
 H        -0.178193        -0.172250        -2.508957
 H         0.331734         1.436683        -4.645207
 H         1.609068         2.702100        -4.208889
 H         3.677182         1.180659        -2.204018
 H         2.811593         2.680057        -2.174644
 H         2.328188         2.037765         0.094752
