19
Iteration:   154charge 0 multiplicity 1
 C         0.102130        -0.004117         0.477950
 C         1.059574         0.303333        -0.745750
 C         0.592704         0.136658        -2.171792
 C         1.637300         1.038763        -2.961464
 C         1.466417         1.566565        -4.352787
 O         2.335623         0.438736        -4.060946
 C         2.616257         1.790397        -1.977998
 C         2.415792         1.022527        -0.614197
 O         2.423221        -0.392168        -0.674608
 H        -0.743154        -0.686344         0.229808
 H         0.701531        -0.526978         1.303941
 H        -0.168385         0.932718         0.926094
 H         0.478707        -0.906559        -2.451310
 H        -0.333531         0.730704        -2.358317
 H         0.533593         1.296904        -4.772750
 H         1.938094         2.422836        -4.741586
 H         3.612593         1.676934        -2.427546
 H         2.529473         2.859280        -1.792327
 H         2.476790         1.517879         0.381239
