19
Iteration:  3677
 C         0.086046        -0.186083         0.410323
 C         1.099867         0.198056        -0.636818
 C         0.762151         0.033244        -2.149480
 C         1.677402         0.989040        -3.000076
 C         1.383984         1.517985        -4.303984
 O         2.340843         0.340629        -4.235729
 C         2.615683         1.765016        -1.975193
 C         2.180681         1.295062        -0.634817
 O         2.503578        -0.058782        -0.491984
 H        -0.158328        -1.313534         0.410822
 H         0.504493         0.055077         1.327021
 H        -0.749555         0.176856        -0.009948
 H         0.756132        -1.064745        -2.479902
 H        -0.227203         0.512749        -2.278962
 H         0.383871         1.326820        -4.757919
 H         1.821500         2.500579        -4.562213
 H         3.646234         1.458102        -2.309443
 H         2.401251         2.879115        -2.114893
 H         2.294159         1.933036         0.281010
