19
Iteration:  2254charge 0 multiplicity 1
 C         0.165372        -0.177788         0.364513
 C         1.191874         0.256985        -0.702170
 C         0.613783         0.107584        -2.222653
 C         1.589994         0.971486        -2.987866
 C         1.450217         1.409339        -4.313298
 O         2.386837         0.385966        -4.058964
 C         2.476394         1.860222        -2.042274
 C         2.214795         1.264655        -0.676680
 O         2.555130        -0.162918        -0.425665
 H        -0.848404         0.471776         0.306255
 H         0.002456        -1.264493         0.100321
 H         0.525608        -0.014381         1.353930
 H         0.727771        -0.940900        -2.582150
 H        -0.468617         0.356841        -2.366435
 H         0.537503         1.045217        -4.764552
 H         1.813769         2.363139        -4.700139
 H         3.465756         1.750956        -2.549657
 H         2.158622         2.893420        -1.962508
 H         2.441665         1.780629         0.272168
