19
Iteration:   116
 C         0.226625        -0.265552         0.404596
 C         1.100938         0.202782        -0.763648
 C         0.490153         0.606109        -2.164042
 C         1.665957         1.116551        -2.924405
 C         1.613551         1.396802        -4.326264
 O         2.265110         0.180650        -3.822616
 C         2.522635         1.938821        -1.933128
 C         2.319461         1.084175        -0.667981
 O         2.473138        -0.339098        -0.881096
 H        -0.385124        -1.183535         0.284081
 H         0.890132        -0.454974         1.311052
 H        -0.532523         0.549979         0.650315
 H        -0.194326        -0.220002        -2.509292
 H        -0.141736         1.475967        -1.918712
 H         0.645488         1.369433        -4.934660
 H         2.385409         2.050221        -4.845980
 H         3.526482         1.941737        -2.398523
 H         1.970714         2.912787        -1.823703
 H         2.602511         1.442241         0.320809
