19
Iteration:   459charge 0 multiplicity 1
 C         0.088593        -0.017901         0.381048
 C         1.064342         0.273521        -0.694356
 C         0.737877         0.126899        -2.243139
 C         1.717578         1.019663        -2.959140
 C         1.376141         1.644046        -4.250776
 O         2.167421         0.483095        -4.275176
 C         2.731523         1.547506        -1.981428
 C         2.372086         1.092618        -0.601467
 O         2.389022        -0.277151        -0.424051
 H         0.087244        -1.135349         0.635003
 H         0.463151         0.660068         1.307495
 H        -0.838940         0.304338         0.108869
 H         1.055436        -0.888451        -2.491819
 H        -0.350525         0.295597        -2.488414
 H         0.361510         1.577690        -4.674121
 H         1.859725         2.617516        -4.405031
 H         3.595479         1.151989        -2.499766
 H         3.060492         2.607187        -2.095102
 H         2.585940         1.596171         0.361857
