19
Iteration:  4640charge 0 multiplicity 1
 C         0.071146        -0.091163         0.405382
 C         1.160971         0.174777        -0.704578
 C         0.846601        -0.103688        -2.151169
 C         1.645871         0.956467        -3.019005
 C         1.345019         1.600320        -4.377310
 O         2.300174         0.459338        -4.115776
 C         2.502494         1.827791        -2.008709
 C         2.162693         1.218500        -0.592944
 O         2.582103        -0.161879        -0.486069
 H         0.450247        -0.835770         1.057467
 H        -0.054573         0.790808         1.006139
 H        -0.905349        -0.330366        -0.123192
 H         1.277061        -1.000862        -2.517377
 H        -0.166919        -0.119255        -2.438597
 H         0.484796         1.122012        -4.781873
 H         1.690313         2.574001        -4.641683
 H         3.520175         1.644734        -2.382292
 H         2.354220         2.917399        -2.026697
 H         2.267932         1.802894         0.241899
