19
Iteration:   632
 C         0.253164        -0.245620         0.350931
 C         1.128994         0.301786        -0.720721
 C         0.484407         0.460489        -2.088742
 C         1.630699         1.143798        -2.939895
 C         1.510880         1.352343        -4.360567
 O         2.302295         0.237525        -3.934918
 C         2.580841         1.889381        -1.967823
 C         2.318201         1.179185        -0.604441
 O         2.402787        -0.351198        -0.740737
 H        -0.684377        -0.468833        -0.082375
 H         0.579733        -1.371405         0.583781
 H         0.232981         0.511807         1.204149
 H         0.254794        -0.476935        -2.581153
 H        -0.380148         1.126458        -2.193376
 H         0.592509         1.252734        -5.021270
 H         2.253150         2.129438        -4.783057
 H         3.576223         1.766871        -2.322824
 H         2.539951         3.029934        -1.924037
 H         2.711549         1.653103         0.290498
