19
Iteration:  3582charge 0 multiplicity 1
 C         0.130243        -0.005125         0.343061
 C         1.109250         0.213974        -0.794008
 C         0.803817        -0.011375        -2.235650
 C         1.724961         0.962806        -2.944262
 C         1.203866         1.356930        -4.235828
 O         2.384000         0.564042        -4.170380
 C         2.607906         1.810190        -2.040776
 C         2.192536         1.209809        -0.604763
 O         2.510136        -0.252395        -0.395114
 H        -0.574939        -0.838551         0.223416
 H         0.743151         0.114760         1.348048
 H        -0.746359         0.765261         0.042336
 H         0.872334        -1.043708        -2.479721
 H        -0.219295         0.397176        -2.417537
 H         0.319501         0.818657        -4.623496
 H         1.412480         2.354347        -4.624558
 H         3.662992         1.701702        -2.223874
 H         2.371260         2.866281        -1.940485
 H         2.438333         1.750157         0.274005
