19
Iteration:  2872
 C         0.339062        -0.152410         0.481446
 C         1.118348         0.199922        -0.772510
 C         0.372487         0.313761        -2.189791
 C         1.628390         1.109084        -2.997448
 C         1.648096         1.427850        -4.420144
 O         2.333641         0.258992        -3.911566
 C         2.418827         1.899823        -1.947791
 C         2.205866         1.148417        -0.660619
 O         2.543231        -0.268761        -0.718134
 H         0.442388         0.447111         1.305863
 H        -0.723693        -0.300040         0.343971
 H         0.858842        -1.174284         0.962150
 H        -0.056057        -0.591112        -2.706643
 H        -0.444303         0.917528        -1.893579
 H         0.736819         1.209157        -4.994348
 H         2.392231         2.180678        -4.745527
 H         3.406277         1.659011        -2.380926
 H         2.016164         3.095776        -1.745057
 H         2.419343         1.667676         0.387428
