19
Iteration:  3551
 C         0.114157        -0.110111         0.407704
 C         1.125501         0.225246        -0.778715
 C         0.806306        -0.011394        -2.224323
 C         1.690386         0.981524        -2.983890
 C         1.421415         1.517430        -4.325386
 O         2.196954         0.375427        -4.208401
 C         2.562601         1.803158        -1.955135
 C         2.135519         1.244418        -0.544672
 O         2.580137        -0.159138        -0.446168
 H        -0.019933        -1.105811         0.467430
 H         0.434230         0.375836         1.398589
 H        -0.817690         0.520580         0.156135
 H         0.992130        -1.067534        -2.510835
 H        -0.311726         0.066152        -2.491232
 H         0.501161         1.387588        -4.918651
 H         1.964286         2.436929        -4.564112
 H         3.649147         1.734373        -2.079788
 H         2.402363         2.871532        -2.067285
 H         2.350677         1.832820         0.317147
