19
Iteration:  4533charge 0 multiplicity 1
 C         0.016974        -0.154925         0.229504
 C         1.191022         0.128112        -0.655439
 C         0.869009        -0.036385        -2.147726
 C         1.736711         0.925563        -2.955633
 C         1.232189         1.451711        -4.314163
 O         2.303307         0.428351        -4.243568
 C         2.453020         1.923489        -2.031419
 C         2.323748         1.290292        -0.575950
 O         2.586449        -0.113837        -0.363459
 H        -0.757626        -0.782555        -0.118585
 H         0.320919        -0.484928         1.216132
 H        -0.510879         0.840175         0.483226
 H         1.069190        -1.133867        -2.553578
 H        -0.261780         0.127175        -2.379631
 H         0.190472         1.218898        -4.631831
 H         1.756542         2.380808        -4.591430
 H         3.444732         1.913847        -2.371980
 H         2.076608         2.954559        -1.898543
 H         2.423865         1.917879         0.351969
