19
Iteration:  4858charge 0 multiplicity 1
 C         0.230877        -0.369076         0.530529
 C         1.198807         0.184235        -0.777743
 C         0.545946         0.372027        -2.117860
 C         1.592621         1.011194        -2.916279
 C         1.664435         1.438451        -4.422025
 O         2.301095         0.234858        -3.916410
 C         2.387629         1.934647        -1.970773
 C         2.172436         1.217692        -0.687328
 O         2.530608        -0.123364        -0.784664
 H         0.607269        -0.014768         1.414671
 H        -0.812355        -0.067577         0.375693
 H         0.477554        -1.453541         0.661109
 H         0.238213        -0.563183        -2.593194
 H        -0.465942         0.911213        -1.885947
 H         0.936879         1.258576        -5.251504
 H         2.213230         2.362068        -4.729155
 H         3.490776         2.064816        -2.199794
 H         1.927720         2.881777        -2.104815
 H         2.416770         1.681421         0.246852
