19
Iteration:  1444charge 0 multiplicity 1
 C        -0.060816         0.170317         0.091239
 C         1.136001         0.182298        -0.791832
 C         1.100146        -0.219804        -2.228508
 C         1.836831         0.913772        -2.896756
 C         1.140216         1.531619        -4.049756
 O         1.940734         0.525208        -4.393182
 C         2.842335         1.658276        -1.945024
 C         2.283907         1.252543        -0.631586
 O         2.522474        -0.185343        -0.203366
 H         0.049873         0.318824         1.276654
 H        -0.740241         0.928067        -0.294479
 H        -0.581427        -0.670264        -0.164016
 H         1.578726        -1.190641        -2.375463
 H         0.145466        -0.383352        -2.729358
 H         0.015656         1.470917        -4.172968
 H         1.434553         2.554042        -4.300383
 H         3.852755         1.355928        -2.235497
 H         2.905710         2.743169        -1.950491
 H         2.428629         1.885701         0.302079
