19
Iteration:   322
 C        -0.178241         0.437444        -0.103941
 C         1.183688         0.186406        -0.802634
 C         1.207359        -0.434234        -2.254366
 C         1.825361         0.684612        -2.996057
 C         0.996021         1.773391        -3.576377
 O         1.929039         0.938451        -4.357481
 C         3.055463         1.206537        -2.152466
 C         2.330511         1.079118        -0.749467
 O         2.406469        -0.163854        -0.072617
 H        -0.515694        -0.495386         0.352620
 H        -0.217322         1.152429         0.618672
 H        -0.877918         0.898631        -0.952869
 H         1.930848        -1.271713        -2.299980
 H         0.266991        -0.664454        -2.704522
 H        -0.055220         1.604006        -3.871201
 H         1.315567         2.846237        -3.400680
 H         3.945183         0.543105        -2.091595
 H         3.325872         2.153930        -2.615395
 H         2.311765         1.967267        -0.139473
