19
Iteration:  4214charge 0 multiplicity 1
 C         0.124681        -0.237230         0.325027
 C         1.126609         0.280991        -0.739783
 C         0.730014         0.016822        -2.167417
 C         1.559328         1.014159        -2.954634
 C         1.439021         1.528600        -4.342007
 O         2.252831         0.366856        -4.119959
 C         2.554952         1.796819        -2.016115
 C         2.218609         1.272253        -0.607072
 O         2.594679        -0.113025        -0.450381
 H         0.160848        -1.300057         0.676307
 H         0.210169         0.380006         1.241153
 H        -0.866129        -0.069519        -0.007853
 H         1.060044        -1.026163        -2.398617
 H        -0.293606         0.065472        -2.356447
 H         0.485297         1.408578        -4.948207
 H         1.938608         2.521628        -4.541291
 H         3.626310         1.548381        -2.188127
 H         2.598915         2.862369        -2.195884
 H         2.329859         1.802007         0.252177
