19
Iteration:  1818
 C         0.223357        -0.298430         0.327423
 C         1.181075         0.182691        -0.765476
 C         0.501862         0.429232        -2.058472
 C         1.612413         1.146366        -2.924152
 C         1.523592         1.168625        -4.373154
 O         2.386124         0.245205        -3.762361
 C         2.453693         2.021918        -1.944339
 C         2.246633         1.241502        -0.622627
 O         2.465455        -0.191374        -0.952671
 H         0.789814        -0.604098         1.313658
 H        -0.382715         0.610852         0.712359
 H        -0.350709        -1.114277         0.117873
 H         0.334987        -0.583114        -2.401021
 H        -0.320643         1.105545        -2.070052
 H         0.598500         0.795368        -4.894817
 H         2.173604         1.899470        -4.847270
 H         3.465935         2.090888        -2.317835
 H         2.229924         3.047660        -1.771509
 H         2.773193         1.503615         0.305978
