19
Iteration:  2701charge 0 multiplicity 1
 C         0.135914        -0.029373         0.321423
 C         1.176558         0.210638        -0.774557
 C         0.822904        -0.037219        -2.165085
 C         1.677592         0.964464        -3.005640
 C         1.237357         1.488080        -4.246315
 O         2.253746         0.529365        -4.219580
 C         2.671031         1.668103        -2.011838
 C         2.190507         1.243041        -0.646521
 O         2.507383        -0.202915        -0.317562
 H         0.006958        -1.120012         0.712837
 H         0.161382         0.726345         1.120755
 H        -0.859130         0.065201        -0.170778
 H         1.108309        -0.977922        -2.615142
 H        -0.256821         0.327444        -2.159643
 H         0.337117         1.182691        -4.786161
 H         1.616738         2.468779        -4.592132
 H         3.794849         1.497879        -2.202131
 H         2.629587         2.768331        -2.101315
 H         2.191993         2.063607         0.116122
