19
Iteration:  3991charge 0 multiplicity 1
 C         0.173559        -0.050333         0.336702
 C         1.175382         0.182755        -0.727637
 C         0.747545        -0.012835        -2.216526
 C         1.725962         0.980600        -2.948113
 C         1.337392         1.437757        -4.297971
 O         2.292977         0.386032        -4.159996
 C         2.511095         1.855985        -1.905294
 C         2.204224         1.194945        -0.610323
 O         2.541729        -0.157140        -0.552192
 H        -0.145637        -1.075148         0.499800
 H         0.394325         0.433820         1.242511
 H        -0.734008         0.578018         0.002351
 H         0.759397        -1.054685        -2.378977
 H        -0.268819         0.518259        -2.293671
 H         0.396135         1.121784        -4.773377
 H         1.792423         2.391386        -4.609720
 H         3.628754         1.941401        -1.981047
 H         1.982214         2.838916        -1.802430
 H         2.195643         1.890301         0.296455
