19
Iteration:  3181
 C         0.057138        -0.099978         0.322460
 C         1.214896         0.236282        -0.653135
 C         0.777698         0.005337        -2.152345
 C         1.624548         0.942403        -2.956803
 C         1.269402         1.431076        -4.304784
 O         2.364912         0.476303        -4.123065
 C         2.605375         1.810280        -2.015472
 C         2.263328         1.269619        -0.667352
 O         2.501149        -0.175535        -0.480405
 H        -0.581757        -0.854639        -0.293554
 H         0.445318        -0.486092         1.342868
 H        -0.570590         0.682959         0.375888
 H         0.910996        -1.112618        -2.237388
 H        -0.266625         0.447082        -2.255120
 H         0.360824         0.986744        -4.711590
 H         1.514768         2.418122        -4.746690
 H         3.610413         1.686630        -2.446519
 H         2.186665         2.755357        -2.045661
 H         2.640727         1.846362         0.188265
