19
Iteration:  2250charge 0 multiplicity 1
 C         0.128119        -0.210556         0.363777
 C         1.201142         0.261624        -0.743735
 C         0.642239         0.126713        -2.201457
 C         1.561607         0.941876        -2.959239
 C         1.434016         1.416713        -4.329647
 O         2.389144         0.386425        -4.085876
 C         2.513374         1.834470        -2.040781
 C         2.201179         1.268301        -0.664731
 O         2.571914        -0.141842        -0.408906
 H        -0.756596         0.301463         0.266203
 H        -0.054496        -1.205178         0.205760
 H         0.444524         0.099343         1.460728
 H         0.787565        -0.831879        -2.624890
 H        -0.381950         0.489384        -2.275621
 H         0.460728         1.153807        -4.781003
 H         1.845224         2.361587        -4.709008
 H         3.430131         1.705439        -2.546835
 H         2.150862         2.888011        -2.093056
 H         2.374376         1.774006         0.311129
