19
Iteration:   603charge 0 multiplicity 1
 C         0.246403        -0.278268         0.362142
 C         1.052122         0.185128        -0.820138
 C         0.439463         0.646504        -2.057246
 C         1.635288         1.225540        -2.901292
 C         1.636678         1.285536        -4.417208
 O         2.257541         0.111911        -3.749606
 C         2.480554         1.960183        -1.925666
 C         2.327174         1.077799        -0.637442
 O         2.536290        -0.299424        -0.912863
 H        -0.861381        -0.641187         0.109356
 H         0.858502        -1.100608         0.725863
 H         0.222426         0.461446         1.065877
 H        -0.142721        -0.105392        -2.638976
 H        -0.172998         1.550142        -1.796155
 H         0.712429         1.295341        -4.943887
 H         2.480595         1.720853        -4.948838
 H         3.476336         2.351644        -2.291454
 H         2.065732         2.999184        -1.842733
 H         2.695255         1.542863         0.303565
