19
Iteration:   602charge 0 multiplicity 1
 C         0.251194        -0.280565         0.359032
 C         1.048741         0.182814        -0.819559
 C         0.437015         0.653260        -2.058564
 C         1.629932         1.225693        -2.890412
 C         1.638459         1.280245        -4.407614
 O         2.262742         0.105938        -3.749282
 C         2.483813         1.973183        -1.923208
 C         2.322475         1.084060        -0.646827
 O         2.535543        -0.308135        -0.922695
 H        -0.840094        -0.602555         0.116854
 H         0.888961        -1.130102         0.783182
 H         0.194114         0.456126         1.043021
 H        -0.149741        -0.095899        -2.621928
 H        -0.171466         1.559502        -1.783315
 H         0.708990         1.312162        -4.963431
 H         2.520398         1.702873        -4.945099
 H         3.458780         2.332068        -2.298371
 H         2.037830         3.036962        -1.844339
 H         2.687817         1.542411         0.291416
