19
Iteration:  1739charge 0 multiplicity 1
 C         0.190809        -0.078451         0.491439
 C         1.062647         0.236789        -0.741958
 C         0.579928         0.120754        -2.199567
 C         1.650653         1.033053        -2.930378
 C         1.524504         1.474549        -4.276653
 O         2.306122         0.373722        -4.077170
 C         2.546343         1.750073        -2.002741
 C         2.291727         1.193731        -0.630784
 O         2.460388        -0.202866        -0.688355
 H         0.557714         0.546751         1.333316
 H        -0.810357        -0.065799         0.264831
 H         0.409337        -1.133437         0.795616
 H         0.619699        -0.842541        -2.656900
 H        -0.419133         0.518701        -2.379317
 H         0.647338         1.222740        -4.839177
 H         1.948355         2.473000        -4.507775
 H         3.590030         1.595751        -2.309209
 H         2.298283         2.799291        -1.897417
 H         2.581835         1.703190         0.308903
