19
Iteration:  3326charge 0 multiplicity 1
 C         0.217760        -0.290957         0.249186
 C         1.244312         0.233312        -0.748046
 C         0.548703         0.390146        -2.115412
 C         1.598397         1.119098        -2.971738
 C         1.488994         1.259437        -4.383731
 O         2.309489         0.156474        -3.828930
 C         2.400651         2.019429        -1.995964
 C         2.209776         1.260966        -0.609063
 O         2.625457        -0.181346        -0.661853
 H         0.419635        -1.454225         0.092584
 H         0.302343        -0.022984         1.307173
 H        -0.755337        -0.114602        -0.234215
 H         0.338094        -0.576384        -2.553294
 H        -0.258398         1.211657        -1.856444
 H         0.532334         0.997516        -4.864782
 H         2.103271         2.017608        -4.843435
 H         3.392947         2.117150        -2.448837
 H         1.821097         2.897012        -1.782321
 H         2.498104         1.742476         0.321048
