19
Iteration:  4256
 C         0.171666        -0.207457         0.415296
 C         1.121897         0.153405        -0.689738
 C         0.641932         0.231790        -2.162966
 C         1.759116         0.968191        -2.990830
 C         1.366204         1.338449        -4.394172
 O         2.417568         0.391339        -4.192210
 C         2.458902         1.941189        -1.963536
 C         2.157285         1.194525        -0.542318
 O         2.550337        -0.139832        -0.519992
 H        -0.222547        -1.221042         0.135911
 H         0.835570        -0.320605         1.349607
 H        -0.606849         0.421391         0.641819
 H         0.560495        -0.727840        -2.633029
 H        -0.347468         0.792279        -2.163998
 H         0.430892         0.897420        -4.841546
 H         1.711401         2.350188        -4.708918
 H         3.577459         1.853003        -2.281362
 H         2.190605         2.994839        -2.037982
 H         2.117823         1.813411         0.254272
