19
Iteration:  3481
 C         0.211249        -0.193641         0.408462
 C         1.143577         0.195951        -0.711380
 C         0.692511         0.288762        -2.209141
 C         1.727656         1.049620        -2.930872
 C         1.313042         1.272321        -4.434010
 O         2.358793         0.384442        -4.081610
 C         2.579612         1.866888        -1.888874
 C         2.106160         1.257811        -0.564567
 O         2.508765        -0.227558        -0.614504
 H         0.222846        -1.331521         0.468430
 H         0.642279         0.272761         1.260984
 H        -0.785243         0.290677         0.260058
 H         0.491506        -0.594641        -2.778400
 H        -0.335177         0.765364        -2.418897
 H         0.354142         0.942387        -4.829511
 H         1.693315         2.147381        -4.989928
 H         3.648923         1.741782        -1.902602
 H         2.530402         2.949421        -2.026845
 H         2.223689         1.769849         0.441344
