19
Iteration:  4132charge 0 multiplicity 1
 C         0.022483         0.013325         0.387242
 C         1.193460         0.173564        -0.654780
 C         0.883439        -0.129386        -2.149409
 C         1.669889         0.978417        -3.022366
 C         1.220194         1.523612        -4.380844
 O         2.322646         0.563442        -4.180667
 C         2.548777         1.745769        -2.014160
 C         2.185752         1.173909        -0.678673
 O         2.594461        -0.181441        -0.375407
 H        -0.198031        -1.032719         0.205638
 H         0.178542         0.232245         1.454920
 H        -0.970093         0.581042         0.070244
 H         1.312251        -1.076375        -2.465058
 H        -0.275612         0.095129        -2.446720
 H         0.417030         1.120166        -4.946300
 H         1.595041         2.508536        -4.576461
 H         3.560134         1.257692        -2.053966
 H         2.477270         2.873697        -2.081670
 H         2.397207         1.901026         0.277079
