19
Iteration:   219
 C        -0.041137         0.170227         0.191877
 C         1.158836         0.208120        -0.724326
 C         0.912232        -0.065038        -2.195549
 C         1.783812         0.911136        -2.979704
 C         1.238024         1.778063        -4.022353
 O         2.123962         0.640726        -4.318554
 C         2.817640         1.419300        -2.061591
 C         2.296839         1.076094        -0.641637
 O         2.432234        -0.328484        -0.286949
 H        -0.728498        -0.739028         0.133790
 H         0.252116         0.550134         1.252305
 H        -0.603682         0.989257        -0.181699
 H         1.303351        -1.040827        -2.485620
 H        -0.175688        -0.124770        -2.430390
 H         0.226762         1.567802        -4.272835
 H         1.620385         2.736705        -4.165462
 H         3.792800         1.013359        -2.377187
 H         2.956805         2.504185        -2.308827
 H         2.308351         1.888216         0.108453
