19
Iteration:   215charge 0 multiplicity 1
 C        -0.027133         0.166016         0.218808
 C         1.139468         0.188314        -0.720034
 C         0.870496        -0.054164        -2.232371
 C         1.771932         0.889274        -2.963295
 C         1.226754         1.761040        -4.056393
 O         2.145115         0.638498        -4.319719
 C         2.834536         1.428459        -2.036699
 C         2.311576         1.085452        -0.636779
 O         2.448315        -0.321463        -0.292969
 H        -0.781479        -0.567959         0.160545
 H         0.334271         0.429393         1.275935
 H        -0.613809         1.025213        -0.152488
 H         1.247174        -1.086630        -2.485720
 H        -0.168871        -0.065332        -2.538805
 H         0.168926         1.614126        -4.383398
 H         1.668009         2.809678        -4.207798
 H         3.809140         1.076492        -2.346242
 H         2.817695         2.571583        -2.109895
 H         2.340813         1.861713         0.096715
