19
Iteration:  3683charge 0 multiplicity 1
 C         0.091704        -0.243627         0.391034
 C         1.080463         0.189510        -0.647843
 C         0.705375         0.064944        -2.106986
 C         1.704784         1.000032        -2.986844
 C         1.398743         1.500735        -4.349374
 O         2.344850         0.388020        -4.192793
 C         2.595245         1.742154        -2.052883
 C         2.254911         1.321490        -0.620087
 O         2.482087        -0.066257        -0.474959
 H        -0.007240        -1.297206         0.496443
 H         0.435453         0.089202         1.455135
 H        -0.993700         0.137572        -0.094992
 H         0.802269        -0.964610        -2.456509
 H        -0.297874         0.500065        -2.252461
 H         0.472312         1.166047        -4.789349
 H         1.699704         2.530568        -4.581326
 H         3.617073         1.395209        -2.190008
 H         2.403233         2.757453        -2.285286
 H         2.516072         1.958059         0.240427
