19
Iteration:  4014charge 0 multiplicity 1
 C         0.076443        -0.108564         0.419918
 C         1.145521         0.212516        -0.685448
 C         0.833343         0.009689        -2.215213
 C         1.759607         0.941951        -2.975683
 C         1.308406         1.481181        -4.258488
 O         2.317163         0.406176        -4.259624
 C         2.541272         1.824776        -2.018326
 C         2.155015         1.273216        -0.583453
 O         2.526026        -0.152865        -0.503437
 H        -0.410618        -1.090520         0.293123
 H         0.552726        -0.128005         1.428539
 H        -0.691579         0.677186         0.637301
 H         1.153094        -1.048298        -2.390646
 H        -0.274267         0.276370        -2.359396
 H         0.293135         1.215801        -4.643811
 H         1.820706         2.397027        -4.671780
 H         3.651241         1.592107        -2.010550
 H         2.189764         2.854592        -2.247105
 H         2.243541         1.903331         0.348502
