19
Iteration:  3589charge 0 multiplicity 1
 C         0.073832         0.045971         0.292994
 C         1.128974         0.219630        -0.697825
 C         0.767185        -0.011550        -2.229832
 C         1.691859         0.909906        -2.941617
 C         1.221864         1.337379        -4.284359
 O         2.404154         0.613920        -4.189306
 C         2.608721         1.802656        -1.999109
 C         2.240704         1.217026        -0.613374
 O         2.530566        -0.258129        -0.415345
 H        -0.462680        -1.035864         0.269765
 H         0.506387        -0.024188         1.250522
 H        -0.634902         0.813397         0.371245
 H         0.925056        -1.080260        -2.465461
 H        -0.208654         0.346012        -2.483566
 H         0.409562         0.709440        -4.682501
 H         1.139636         2.416935        -4.533306
 H         3.637529         1.575859        -2.340983
 H         2.332363         2.909043        -2.012891
 H         2.460895         1.747938         0.360890
