19
Iteration:  1056
 C         0.235633        -0.029224         0.467135
 C         1.022332         0.246443        -0.660243
 C         0.582559         0.229030        -2.191049
 C         1.691253         1.058401        -2.942522
 C         1.440607         1.365382        -4.318543
 O         2.478808         0.319366        -3.966011
 C         2.446192         1.965566        -1.923299
 C         2.313830         1.145510        -0.638171
 O         2.413596        -0.328449        -0.862374
 H         0.836964        -0.371366         1.260313
 H        -0.403129         0.830281         0.750398
 H        -0.459524        -1.043550         0.308692
 H         0.729914        -0.829278        -2.509835
 H        -0.490774         0.518037        -2.285004
 H         0.551152         0.926251        -4.710016
 H         1.764545         2.179734        -4.931342
 H         3.491344         2.116786        -2.239919
 H         1.994619         2.953389        -1.867348
 H         2.770516         1.407307         0.334376
