19
Iteration:  4831charge 0 multiplicity 1
 C         0.329146        -0.331714         0.338348
 C         1.150986         0.341404        -0.816880
 C         0.513059         0.400363        -2.202452
 C         1.629031         1.134255        -2.929928
 C         1.472876         1.336111        -4.359485
 O         2.399691         0.203516        -3.806165
 C         2.380960         1.974309        -1.873048
 C         2.224783         1.154852        -0.643796
 O         2.500283        -0.222270        -0.787240
 H         0.421597         0.343436         1.311970
 H        -0.757153        -0.501712         0.115610
 H         0.782519        -1.295793         0.507610
 H         0.473537        -0.648844        -2.614441
 H        -0.434594         0.888257        -2.130032
 H         0.494521         1.006026        -4.718333
 H         1.932271         2.045530        -5.039394
 H         3.417801         2.019811        -2.088476
 H         1.972551         3.033283        -1.895404
 H         2.738567         1.611849         0.274336
