19
Iteration:  2302
 C         0.261906        -0.090652         0.545080
 C         1.092224         0.177342        -0.802830
 C         0.584312         0.155476        -2.164112
 C         1.624021         1.063009        -2.953031
 C         1.488650         1.262490        -4.347341
 O         2.575412         0.343466        -3.972154
 C         2.281708         1.989578        -1.893718
 C         2.182435         1.159715        -0.710737
 O         2.512112        -0.192371        -0.768457
 H        -0.114513         0.899947         0.775522
 H        -0.673065        -0.855295         0.354199
 H         0.876872        -0.265312         1.533419
 H         0.541239        -0.799125        -2.821761
 H        -0.431708         0.614490        -2.224197
 H         0.577031         0.886066        -4.898295
 H         1.938830         2.168570        -4.784882
 H         3.366701         2.169658        -2.096224
 H         1.626914         2.924372        -1.924149
 H         2.567687         1.549301         0.233296
