19
Iteration:  1801
 C         0.305074        -0.170874         0.400275
 C         1.099375         0.255296        -0.749301
 C         0.491352         0.399913        -2.172550
 C         1.663592         1.089170        -2.899941
 C         1.524119         1.298942        -4.390539
 O         2.416133         0.246389        -3.761424
 C         2.355242         1.941611        -1.915142
 C         2.260221         1.124184        -0.674306
 O         2.537143        -0.281016        -0.883863
 H         0.772586        -0.123520         1.329452
 H        -0.551908         0.514284         0.584462
 H         0.027944        -1.313164         0.198509
 H         0.033048        -0.467088        -2.786238
 H        -0.341418         1.179674        -2.052745
 H         0.709138         0.799612        -4.895216
 H         1.836161         2.242825        -4.869497
 H         3.405350         2.140310        -2.290403
 H         1.834510         2.963209        -1.950201
 H         2.492350         1.667722         0.257205
