19
Iteration:  4281charge 0 multiplicity 1
 C         0.201774        -0.216247         0.403079
 C         1.119750         0.263637        -0.695910
 C         0.621684         0.130118        -2.158352
 C         1.676039         1.025521        -2.949872
 C         1.413128         1.292437        -4.404728
 O         2.464072         0.420221        -3.921142
 C         2.411319         1.956037        -1.969734
 C         2.249148         1.233744        -0.619588
 O         2.448911        -0.200169        -0.739543
 H        -0.543109        -0.992288         0.119962
 H         0.919222        -0.586633         1.085365
 H        -0.293021         0.632059         0.966909
 H         0.862548        -0.930075        -2.526659
 H        -0.383234         0.419299        -2.313410
 H         0.454810         0.832554        -4.750083
 H         1.725635         2.321040        -4.739626
 H         3.467638         1.993867        -2.287539
 H         2.071641         3.032447        -2.027912
 H         2.648307         1.853695         0.166494
