19
Iteration:   590
 C         0.324410        -0.302608         0.370040
 C         1.173546         0.227749        -0.796806
 C         0.414231         0.719211        -2.109579
 C         1.601477         1.178630        -2.898073
 C         1.720085         1.233333        -4.302665
 O         2.248587         0.089577        -3.706126
 C         2.455897         2.054650        -1.909904
 C         2.278485         1.116166        -0.729802
 O         2.456762        -0.344655        -1.014922
 H        -0.656968        -0.662610        -0.010203
 H         0.694948        -1.149402         1.099493
 H         0.128873         0.492475         0.987245
 H        -0.227153        -0.003415        -2.621024
 H        -0.276594         1.533154        -1.769935
 H         0.848378         1.004557        -4.937341
 H         2.413302         2.043492        -4.727957
 H         3.472538         2.017628        -2.214839
 H         1.925739         3.053602        -1.651023
 H         2.622857         1.331258         0.278997
