19
Iteration:  4973charge 0 multiplicity 1
 C         0.152255        -0.105740         0.413361
 C         1.198945         0.114728        -0.695653
 C         0.673091         0.055287        -2.175700
 C         1.562820         1.007879        -3.055945
 C         1.388817         1.533736        -4.386433
 O         2.380266         0.437713        -4.102070
 C         2.461254         1.910250        -1.975677
 C         2.267787         1.116628        -0.665416
 O         2.549779        -0.222619        -0.448114
 H         0.639432        -0.032035         1.456587
 H        -0.607600         0.652444         0.375204
 H        -0.342639        -1.048514         0.429951
 H         0.854828        -0.940896        -2.622769
 H        -0.347069         0.316044        -2.235502
 H         0.482407         1.243704        -4.875983
 H         1.837397         2.444657        -4.705477
 H         3.423357         2.076134        -2.443126
 H         2.070941         2.992350        -1.922343
 H         2.504042         1.576112         0.226961
