19
Iteration:  3362charge 0 multiplicity 1
 C         0.308551        -0.364549         0.410526
 C         1.087844         0.311514        -0.677198
 C         0.515798         0.408942        -2.155670
 C         1.601430         1.103076        -2.947791
 C         1.509393         1.212636        -4.388205
 O         2.501879         0.219272        -3.781022
 C         2.389409         1.994430        -2.025908
 C         2.209057         1.255684        -0.644321
 O         2.473394        -0.167334        -0.841938
 H         0.000424        -1.287239        -0.051485
 H         0.876684        -0.622753         1.292907
 H        -0.712933         0.161624         0.840119
 H         0.176411        -0.545264        -2.544763
 H        -0.484844         0.890646        -2.191726
 H         0.668876         0.807905        -4.943838
 H         1.950077         2.096235        -4.876578
 H         3.403164         2.088489        -2.400343
 H         2.203570         3.100305        -1.888322
 H         2.710576         1.736553         0.257460
