19
Iteration:  3400charge 0 multiplicity 1
 C         0.429209        -0.156777         0.585202
 C         1.066968         0.203549        -0.773343
 C         0.471172         0.307298        -2.255271
 C         1.556845         1.093177        -2.994945
 C         1.650672         1.331935        -4.415050
 O         2.457687         0.210412        -3.816638
 C         2.264692         1.990669        -1.914856
 C         2.159779         1.162921        -0.637183
 O         2.511079        -0.210702        -0.853310
 H        -0.365330        -0.992232         0.368581
 H         1.122017        -0.614025         1.354630
 H         0.051841         0.751097         0.910614
 H         0.363957        -0.605524        -2.887545
 H        -0.383173         0.950585        -2.258801
 H         0.832597         0.950957        -5.065426
 H         2.184256         2.204663        -4.786433
 H         3.384686         2.015958        -2.038530
 H         1.702405         2.930751        -1.985275
 H         2.265910         1.531779         0.351955
