19
Iteration:  1419charge 0 multiplicity 1
 C         0.004114         0.176147         0.209189
 C         1.087972         0.239523        -0.821817
 C         1.057184        -0.154266        -2.185294
 C         1.847625         0.832288        -2.968573
 C         1.075887         1.619987        -3.991848
 O         2.130846         0.541782        -4.297331
 C         2.776259         1.588492        -2.024879
 C         2.236573         1.206698        -0.682940
 O         2.484913        -0.201674        -0.298200
 H         0.190535         0.523804         1.130760
 H        -0.751276         0.774643        -0.290422
 H        -0.588072        -0.837455         0.153808
 H         1.590321        -1.133976        -2.201341
 H         0.060923        -0.445803        -2.545929
 H         0.076958         1.412183        -4.265905
 H         1.418700         2.605977        -4.318637
 H         3.867691         1.457130        -2.125000
 H         2.749931         2.710186        -2.291294
 H         2.352349         1.705323         0.259964
