19
Iteration:  1404
 C         0.000545         0.164893         0.194689
 C         1.189186         0.256569        -0.714904
 C         0.944295        -0.275183        -2.233248
 C         1.723388         0.869877        -2.962782
 C         1.170763         1.553489        -4.079371
 O         2.192271         0.667750        -4.325943
 C         2.759700         1.539733        -2.033884
 C         2.282686         1.207303        -0.648259
 O         2.447761        -0.161483        -0.279400
 H         0.383143         0.591530         1.219251
 H        -0.916762         0.774836         0.025920
 H        -0.146337        -0.896852         0.410457
 H         1.327622        -1.314284        -2.361939
 H        -0.115381        -0.256287        -2.594124
 H         0.172718         1.210958        -4.470953
 H         1.365034         2.633948        -4.156818
 H         3.717678         1.010118        -2.195778
 H         2.719293         2.629488        -2.145149
 H         2.255116         2.041165         0.069081
