19
Iteration:  2094charge 0 multiplicity 1
 C        -0.064548        -0.029068         0.322568
 C         1.116307         0.246208        -0.631633
 C         0.952398        -0.121812        -2.160373
 C         1.721447         0.952548        -2.970735
 C         1.178883         1.415042        -4.291211
 O         2.308971         0.516189        -4.248983
 C         2.642214         1.766091        -2.040353
 C         2.222030         1.247030        -0.625668
 O         2.580647        -0.112489        -0.411945
 H        -0.495496         0.893969         0.456857
 H        -0.924013        -0.751470        -0.079347
 H         0.131687        -0.483714         1.313028
 H         1.556249        -1.067780        -2.394623
 H        -0.065227        -0.428964        -2.316500
 H         0.292899         1.141823        -4.910541
 H         1.505328         2.496784        -4.486351
 H         3.744946         1.716748        -1.997869
 H         2.344795         2.841505        -2.143521
 H         2.305831         1.794891         0.283625
