19
Iteration:  4530
 C         0.032395        -0.143102         0.256675
 C         1.180425         0.118993        -0.645377
 C         0.874171        -0.022475        -2.159165
 C         1.750091         0.914172        -2.954059
 C         1.225066         1.455141        -4.333743
 O         2.323587         0.429753        -4.262657
 C         2.435345         1.918852        -2.019111
 C         2.287892         1.301099        -0.565682
 O         2.594020        -0.124854        -0.367733
 H        -0.839951        -0.843123        -0.058432
 H         0.290536        -0.482894         1.251650
 H        -0.466296         0.876220         0.479927
 H         0.946561        -1.079305        -2.559914
 H        -0.219995         0.084823        -2.414808
 H         0.169637         1.196152        -4.595661
 H         1.767764         2.406727        -4.509678
 H         3.496705         1.976569        -2.439033
 H         2.115221         2.958448        -1.962979
 H         2.494092         1.834386         0.323708
