19
Iteration:  2531charge 0 multiplicity 1
 C         0.087786        -0.075380         0.359667
 C         1.131170         0.247871        -0.701105
 C         0.825926        -0.057475        -2.159623
 C         1.708377         0.940831        -2.966807
 C         1.287131         1.402564        -4.300600
 O         2.365227         0.411307        -4.145705
 C         2.522631         1.849282        -1.985630
 C         2.208174         1.257407        -0.668908
 O         2.532310        -0.103891        -0.491754
 H        -0.450150         0.809774         0.620470
 H        -0.773412        -0.699835        -0.109175
 H         0.615906        -0.500797         1.207481
 H         0.968384        -1.124738        -2.574726
 H        -0.253712         0.187882        -2.025242
 H         0.341339         0.928204        -4.542755
 H         1.654987         2.358371        -4.719157
 H         3.605447         1.852517        -2.157830
 H         2.247449         2.899220        -2.249189
 H         2.285694         1.910275         0.207413
