19
Iteration:  4999
 C         0.243524        -0.135830         0.455624
 C         1.132018         0.230284        -0.724773
 C         0.756984         0.029320        -2.216299
 C         1.614686         0.954294        -2.981178
 C         1.464968         1.545150        -4.348852
 O         2.264731         0.433888        -4.186261
 C         2.549937         1.757024        -1.891549
 C         2.083749         1.253365        -0.611010
 O         2.481113        -0.183450        -0.565889
 H         0.719364         0.243434         1.327907
 H        -0.804248         0.262252         0.520120
 H         0.339518        -1.274113         0.652548
 H         1.024321        -0.953997        -2.527607
 H        -0.304360         0.230261        -2.493077
 H         0.437014         1.350947        -4.815210
 H         2.027990         2.529449        -4.540129
 H         3.680972         1.798124        -2.178692
 H         2.258267         2.768182        -2.080321
 H         2.381189         1.754458         0.361477
