19
Iteration:  4938charge 0 multiplicity 1
 C         0.120986        -0.095379         0.299041
 C         1.112535         0.155411        -0.689012
 C         0.705251         0.147762        -2.139333
 C         1.649584         1.040974        -2.917455
 C         1.233654         1.338935        -4.352036
 O         2.488905         0.417198        -4.025813
 C         2.460674         1.906572        -1.903325
 C         2.291642         1.236642        -0.608435
 O         2.586474        -0.241093        -0.716457
 H         0.713352        -0.404498         1.181376
 H        -0.456321         0.835426         0.528076
 H        -0.556156        -0.838367        -0.056611
 H         0.622566        -0.944017        -2.417729
 H        -0.314223         0.544141        -2.348202
 H         0.361355         0.830082        -4.673929
 H         1.442561         2.301730        -4.760665
 H         3.486790         1.955689        -2.133728
 H         1.907285         2.925298        -1.790645
 H         2.557685         1.523865         0.453084
