19
Iteration:  1331
 C         0.049105        -0.016541         0.280856
 C         1.141046         0.331440        -0.779936
 C         0.909928        -0.066909        -2.169262
 C         1.767340         0.868721        -2.955464
 C         1.315235         1.622927        -4.084833
 O         2.091271         0.423325        -4.249714
 C         2.765858         1.626250        -1.999702
 C         2.194945         1.277921        -0.695362
 O         2.461154        -0.153017        -0.384340
 H         0.214827         0.283263         1.259539
 H        -1.026068         0.142978         0.051369
 H         0.146327        -1.216964         0.098459
 H         1.183725        -1.119088        -2.483693
 H        -0.160690        -0.109000        -2.512886
 H         0.272087         1.551364        -4.312256
 H         1.785125         2.520044        -4.471988
 H         3.867061         1.372807        -2.100997
 H         2.698883         2.780133        -2.203795
 H         2.302852         2.066473         0.049482
