19
Iteration:  4713
 C         0.146259        -0.266096         0.501142
 C         1.152834         0.193214        -0.711860
 C         0.556716         0.143624        -2.099311
 C         1.585415         1.049929        -2.993288
 C         1.445633         1.428017        -4.431936
 O         2.463186         0.437033        -4.139015
 C         2.529943         1.860523        -1.991872
 C         2.193405         1.232136        -0.573496
 O         2.533831        -0.182158        -0.606377
 H         0.799775        -0.284406         1.438499
 H        -0.601912         0.482082         0.634280
 H        -0.274861        -1.239397         0.273630
 H         0.459353        -0.927892        -2.479908
 H        -0.521240         0.580384        -2.113088
 H         0.492732         1.082084        -4.959746
 H         1.894977         2.405380        -4.799305
 H         3.642046         1.731327        -2.278105
 H         2.338249         2.922078        -2.127357
 H         2.352103         1.794685         0.323304
