19
Iteration:  1832charge 0 multiplicity 1
 C         0.251012        -0.399843         0.343509
 C         1.093539         0.325642        -0.692837
 C         0.466968         0.471836        -2.084781
 C         1.586833         1.198574        -2.909888
 C         1.564072         1.195012        -4.418474
 O         2.365445         0.172155        -3.736904
 C         2.481031         2.028072        -1.949634
 C         2.318803         1.203129        -0.667624
 O         2.536513        -0.182084        -0.896401
 H         0.815854        -0.998898         1.015205
 H        -0.436770         0.452201         0.808556
 H        -0.516702        -0.884220        -0.272583
 H         0.277197        -0.500460        -2.705459
 H        -0.581605         0.821593        -1.943684
 H         0.641268         0.726376        -4.839996
 H         1.904214         1.988417        -5.117662
 H         3.533823         1.875469        -2.231873
 H         2.058892         3.051880        -1.927265
 H         2.582086         1.676372         0.290425
