19
Iteration:  3684charge 0 multiplicity 1
 C         0.092613        -0.251330         0.389547
 C         1.083229         0.192575        -0.653544
 C         0.697651         0.076781        -2.101145
 C         1.708482         0.994977        -2.983606
 C         1.400662         1.495432        -4.354726
 O         2.343778         0.399177        -4.184119
 C         2.589856         1.737936        -2.065140
 C         2.261518         1.322330        -0.620055
 O         2.479828        -0.070176        -0.470561
 H         0.030565        -1.300115         0.499409
 H         0.378231         0.097109         1.422934
 H        -1.004276         0.135027        -0.054302
 H         0.803869        -0.987044        -2.471986
 H        -0.327425         0.482497        -2.253604
 H         0.483328         1.142307        -4.801253
 H         1.694333         2.527821        -4.596369
 H         3.629453         1.400615        -2.175125
 H         2.425827         2.762012        -2.302906
 H         2.553052         1.975125         0.254688
