19
Iteration:  2641charge 0 multiplicity 1
 C         0.079770         0.037225         0.347041
 C         1.081280         0.166810        -0.803361
 C         0.903357        -0.120673        -2.274016
 C         1.781904         0.915789        -2.953977
 C         1.166860         1.531915        -4.141753
 O         2.314975         0.448058        -4.192149
 C         2.609884         1.775683        -2.023194
 C         2.186530         1.221525        -0.642360
 O         2.525738        -0.135501        -0.399959
 H        -0.840927        -0.383525         0.135131
 H         0.611808        -0.467564         1.213531
 H        -0.107837         1.103901         0.675065
 H         1.132795        -1.159067        -2.627918
 H        -0.189001        -0.098652        -2.432168
 H         0.166057         1.217811        -4.448004
 H         1.532197         2.457077        -4.587916
 H         3.608671         1.480945        -2.172856
 H         2.468839         2.852902        -2.124837
 H         2.303883         1.974297         0.125021
