19
Iteration:  3385charge 0 multiplicity 1
 C         0.427176        -0.241794         0.469830
 C         1.041690         0.211264        -0.833537
 C         0.504373         0.358275        -2.232455
 C         1.679428         1.047068        -2.923218
 C         1.586865         1.243677        -4.432250
 O         2.435649         0.256210        -3.790251
 C         2.361135         1.977466        -1.900133
 C         2.110909         1.232719        -0.636760
 O         2.414009        -0.173843        -0.846072
 H        -0.140997        -1.107594         0.503775
 H         1.379462        -0.518260         0.989788
 H        -0.007813         0.625887         1.202386
 H         0.166829        -0.639370        -2.510247
 H        -0.449999         0.833590        -2.197114
 H         0.741610         0.915831        -5.026857
 H         2.186029         2.054531        -4.881204
 H         3.327945         2.233126        -2.309572
 H         1.972904         2.996766        -1.641885
 H         2.536384         1.657880         0.290909
