19
Iteration:   198charge 0 multiplicity 1
 C         0.032971         0.242909         0.331145
 C         1.122094         0.170560        -0.784983
 C         0.772451        -0.135042        -2.271616
 C         1.751620         0.942285        -3.002986
 C         1.276751         1.683877        -4.190652
 O         2.195389         0.632965        -4.329775
 C         2.770977         1.580748        -1.901098
 C         2.314790         1.022328        -0.590128
 O         2.436958        -0.323057        -0.349168
 H        -0.652896        -0.649847         0.083206
 H         0.581035        -0.015175         1.293223
 H        -0.471951         1.198150         0.576339
 H         0.806301        -1.145677        -2.663231
 H        -0.291258         0.227335        -2.358136
 H         0.333283         1.442201        -4.636529
 H         1.671112         2.634860        -4.331695
 H         3.837648         1.302281        -2.080229
 H         2.851870         2.649519        -2.053494
 H         2.563429         1.622089         0.335132
