19
Iteration:  4953charge 0 multiplicity 1
 C         0.155530        -0.065472         0.295938
 C         1.243890         0.219618        -0.767667
 C         0.694031         0.114196        -2.151635
 C         1.639733         0.979035        -2.922309
 C         1.303155         1.375092        -4.327100
 O         2.409853         0.514837        -4.023639
 C         2.368157         1.859573        -1.993517
 C         2.285292         1.144887        -0.601757
 O         2.563944        -0.281560        -0.565311
 H         0.485829        -0.364914         1.361026
 H        -0.397100         0.851174         0.372054
 H        -0.441873        -0.937805        -0.058291
 H         0.602345        -0.886803        -2.533680
 H        -0.277383         0.535396        -2.106611
 H         0.502265         0.806055        -4.855929
 H         1.652424         2.368851        -4.697731
 H         3.437826         1.989859        -2.356011
 H         1.973885         2.921006        -1.896264
 H         2.463274         1.778147         0.195455
