19
Iteration:  1169charge 0 multiplicity 1
 C         0.265972        -0.404124         0.315585
 C         1.143448         0.261587        -0.760661
 C         0.451534         0.576577        -2.107341
 C         1.656782         1.066075        -2.961488
 C         1.463423         1.197577        -4.440915
 O         2.371938         0.255112        -3.798910
 C         2.511087         1.949260        -1.962141
 C         2.259818         1.258260        -0.625121
 O         2.500800        -0.187477        -0.723032
 H         0.819571        -0.210342         1.335634
 H        -0.801052        -0.011057         0.305467
 H         0.311896        -1.519216         0.173392
 H         0.035110        -0.350050        -2.518402
 H        -0.241242         1.443869        -2.064632
 H         0.485009         0.820397        -4.796660
 H         2.006749         1.740712        -5.238682
 H         3.507943         1.717056        -2.232424
 H         2.111893         2.934279        -1.978857
 H         2.627678         1.808574         0.257748
