19
Iteration:  4478charge 0 multiplicity 1
 C         0.262101        -0.090948         0.518687
 C         1.143995         0.202691        -0.699533
 C         0.725160        -0.013784        -2.235761
 C         1.567915         1.000021        -2.947009
 C         1.388309         1.410824        -4.337548
 O         2.462731         0.508287        -4.004368
 C         2.430510         1.785402        -2.029352
 C         2.112512         1.314170        -0.702057
 O         2.470966        -0.213344        -0.600432
 H         0.234265        -1.180882         0.583986
 H         0.775125         0.191043         1.403452
 H        -0.798082         0.379193         0.506846
 H         1.138756        -0.989320        -2.763388
 H        -0.390273        -0.032642        -2.547770
 H         0.625446         0.998107        -5.096541
 H         1.648360         2.460659        -4.748491
 H         3.471059         1.609622        -2.249268
 H         2.406353         2.908004        -2.058310
 H         2.233471         1.959431         0.222376
