19
Iteration:   801
 C        -0.072204         0.145663         0.069872
 C         1.154336         0.223681        -0.759446
 C         1.216391        -0.366802        -2.185040
 C         1.720520         0.782070        -2.993119
 C         1.206794         1.767839        -3.876534
 O         1.968146         0.749666        -4.487023
 C         2.852898         1.298013        -2.139362
 C         2.218849         1.174320        -0.715423
 O         2.419876         0.019677        -0.014532
 H         0.009437         0.792570         1.065133
 H        -0.875212         0.585308        -0.465464
 H        -0.242894        -0.888714         0.332158
 H         1.931550        -1.197433        -2.358315
 H         0.268063        -0.796481        -2.544862
 H         0.169368         1.669063        -4.200792
 H         1.582916         2.749997        -3.829876
 H         3.681372         0.547249        -1.948389
 H         3.325059         2.224897        -2.397629
 H         2.207510         2.040542        -0.054160
