19
Iteration:  2942
 C         0.275380        -0.354401         0.291704
 C         1.136191         0.318423        -0.764516
 C         0.500770         0.557065        -2.059672
 C         1.591488         1.150451        -2.944751
 C         1.460332         1.206951        -4.418578
 O         2.436087         0.283205        -3.731594
 C         2.424081         1.932958        -1.985479
 C         2.315056         1.194819        -0.610159
 O         2.468080        -0.285279        -0.831195
 H         0.226689         0.056867         1.410591
 H        -0.793305        -0.403155        -0.058065
 H         0.674714        -1.277959         0.462774
 H         0.261347        -0.331721        -2.604588
 H        -0.314458         1.326545        -2.025157
 H         0.553013         0.638142        -4.681269
 H         1.860713         1.835520        -5.199014
 H         3.592939         1.765752        -2.133088
 H         2.178214         3.088924        -2.125006
 H         2.705906         1.577652         0.240447
