19
Iteration:  2912
 C         0.248353        -0.348543         0.390183
 C         1.102554         0.310649        -0.728515
 C         0.489576         0.453374        -2.124589
 C         1.623820         1.095591        -2.874093
 C         1.601769         1.312366        -4.369266
 O         2.303491         0.153300        -3.797745
 C         2.442225         2.017853        -1.968107
 C         2.334677         1.195253        -0.677403
 O         2.483571        -0.216734        -0.879103
 H         0.058024         0.156629         1.376028
 H        -0.728941        -0.598564        -0.071854
 H         0.752596        -1.287290         0.531575
 H         0.211946        -0.479138        -2.661744
 H        -0.337269         1.257802        -2.022419
 H         0.620826         1.093139        -4.793597
 H         2.200687         1.964090        -5.015550
 H         3.472867         2.222650        -2.122308
 H         2.079853         2.974896        -2.036142
 H         2.809645         1.585555         0.249929
