19
Iteration:  1888charge 0 multiplicity 1
 C         0.265895        -0.326761         0.481238
 C         1.055696         0.251889        -0.691992
 C         0.526269         0.379226        -2.138220
 C         1.622842         1.036204        -2.970758
 C         1.653191         1.350479        -4.443499
 O         2.298051         0.179518        -3.902669
 C         2.368819         1.911987        -1.907678
 C         2.201879         1.224742        -0.612406
 O         2.591653        -0.123151        -0.844979
 H         0.701709        -1.213938         0.753338
 H         0.470294         0.535491         1.193115
 H        -0.884717        -0.422249         0.369245
 H         0.256212        -0.419888        -2.895058
 H        -0.266526         1.125329        -1.965916
 H         0.794062         1.050626        -5.003862
 H         2.279791         2.221976        -4.758721
 H         3.427837         1.809975        -2.197328
 H         2.105023         2.978593        -2.041336
 H         2.395430         1.810019         0.288326
