19
Iteration:  2692charge 0 multiplicity 1
 C         0.027516         0.018077         0.285719
 C         1.155663         0.173641        -0.647560
 C         0.899994        -0.031855        -2.179896
 C         1.686749         0.974266        -2.909953
 C         1.273675         1.501768        -4.340151
 O         2.241876         0.543077        -4.246779
 C         2.601643         1.680484        -2.049224
 C         2.261868         1.197504        -0.666081
 O         2.542017        -0.187299        -0.308091
 H         0.095453        -1.160014         0.531496
 H         0.162575         0.382570         1.332751
 H        -0.891394         0.288034        -0.066336
 H         0.917713        -1.084096        -2.483247
 H        -0.132634         0.152793        -2.341883
 H         0.271737         1.138097        -4.643660
 H         1.503846         2.548922        -4.616774
 H         3.639786         1.417359        -2.442074
 H         2.474164         2.796063        -1.989716
 H         2.385076         1.983778         0.068385
