19
Iteration:  3806charge 0 multiplicity 1
 C         0.302237        -0.253978         0.577313
 C         1.088139         0.188821        -0.694198
 C         0.547068         0.289340        -2.226447
 C         1.575591         1.145309        -2.998281
 C         1.580640         1.217747        -4.454870
 O         2.473190         0.338828        -3.845571
 C         2.376699         1.985111        -1.968240
 C         2.193812         1.245740        -0.650588
 O         2.480004        -0.237643        -0.836255
 H        -0.403868        -1.037201         0.288390
 H         0.832937        -0.548886         1.395384
 H        -0.218331         0.689644         0.985415
 H         0.317394        -0.660905        -2.782521
 H        -0.383216         0.750824        -2.034621
 H         0.716414         0.776143        -4.979076
 H         1.969991         2.120783        -4.937522
 H         3.420335         2.193029        -2.248625
 H         1.895597         2.926404        -1.797622
 H         2.486374         1.669981         0.380657
