19
Iteration:  3477charge 0 multiplicity 1
 C         0.197289        -0.176454         0.412309
 C         1.135514         0.176270        -0.713054
 C         0.681615         0.293101        -2.191330
 C         1.728749         1.031037        -2.964516
 C         1.310064         1.269689        -4.429254
 O         2.357976         0.382106        -4.049631
 C         2.556326         1.920745        -1.887649
 C         2.141479         1.243334        -0.565562
 O         2.505536        -0.236641        -0.639262
 H         0.207881        -1.334773         0.444292
 H         0.597564         0.174368         1.385472
 H        -0.676918         0.370220         0.233121
 H         0.573110        -0.629971        -2.833374
 H        -0.135320         0.820887        -2.523111
 H         0.337806         0.866479        -4.798149
 H         1.729175         2.115871        -4.980093
 H         3.677005         1.719538        -1.952980
 H         2.510523         3.041866        -1.894784
 H         2.201449         1.751812         0.392967
