19
Iteration:   147charge 0 multiplicity 1
 C         0.162809        -0.063205         0.412835
 C         1.112279         0.291366        -0.755261
 C         0.541252         0.245847        -2.115108
 C         1.608866         1.046262        -2.957851
 C         1.501811         1.514732        -4.343819
 O         2.331291         0.396761        -4.030854
 C         2.598318         1.803221        -1.930006
 C         2.367951         1.032338        -0.606809
 O         2.436464        -0.379208        -0.731718
 H        -0.761787        -0.627242         0.149322
 H         0.765219        -0.440952         1.140596
 H        -0.305549         0.929462         0.933012
 H         0.262841        -0.822769        -2.239033
 H        -0.419681         0.750533        -2.311538
 H         0.524598         1.281357        -4.944065
 H         2.207336         2.323949        -4.733669
 H         3.615621         1.810044        -2.428318
 H         2.416006         2.888143        -1.834161
 H         2.542576         1.489577         0.397917
