19
Iteration:  1644
 C         0.033885         0.125243         0.365626
 C         1.102767         0.153868        -0.747090
 C         0.889189        -0.230083        -2.286124
 C         1.742861         0.811140        -3.020590
 C         1.219360         1.696581        -4.067947
 O         2.237792         0.510487        -4.281954
 C         2.768628         1.656743        -2.034578
 C         2.143848         1.264790        -0.666209
 O         2.507346        -0.126764        -0.373105
 H         0.756396        -0.327132         1.259261
 H        -0.525939         1.128134         0.621147
 H        -0.691750        -0.618158         0.292655
 H         1.229947        -1.274931        -2.225575
 H        -0.197099        -0.274119        -2.538787
 H         0.342791         1.331689        -4.596559
 H         1.490140         2.781485        -4.139416
 H         3.686907         1.165124        -2.300277
 H         2.711082         2.707270        -2.302226
 H         2.317290         1.824823         0.270475
