19
Iteration:  4119charge 0 multiplicity 1
 C         0.023550        -0.051490         0.345283
 C         1.132175         0.228128        -0.682479
 C         0.909368        -0.122444        -2.184231
 C         1.627313         0.963047        -2.958638
 C         1.294525         1.509494        -4.280269
 O         2.294637         0.518964        -4.221440
 C         2.582871         1.729980        -2.023260
 C         2.265482         1.237718        -0.617762
 O         2.527812        -0.150358        -0.426411
 H        -0.572238        -0.971204         0.212633
 H         0.394861        -0.008906         1.339387
 H        -0.717179         0.833586         0.191759
 H         1.448374        -1.136415        -2.364506
 H        -0.177244        -0.394436        -2.382485
 H         0.341973         1.199446        -4.642153
 H         1.568144         2.494582        -4.611779
 H         3.577044         1.698714        -2.423859
 H         2.429560         2.828592        -2.067538
 H         2.376845         1.947725         0.312819
