19
Iteration:   191charge 0 multiplicity 1
 C         0.107468         0.185756         0.371778
 C         1.110279         0.215792        -0.756129
 C         0.777214        -0.067742        -2.227178
 C         1.764282         0.948963        -2.990042
 C         1.306992         1.673131        -4.243353
 O         2.248289         0.600354        -4.326740
 C         2.716346         1.630510        -1.926620
 C         2.281523         1.040445        -0.559574
 O         2.408009        -0.403008        -0.401943
 H        -0.806567        -0.387771         0.174741
 H         0.661577        -0.098152         1.191843
 H        -0.429260         1.229306         0.590927
 H         0.817908        -1.065653        -2.699555
 H        -0.287058         0.200633        -2.239332
 H         0.265284         1.366748        -4.590946
 H         1.623558         2.758107        -4.460492
 H         3.710282         1.210340        -2.224316
 H         2.725912         2.717393        -2.060999
 H         2.299257         1.701263         0.328541
