19
Iteration:  2817
 C         0.135226        -0.041713         0.354732
 C         1.126926         0.268297        -0.752641
 C         0.649907         0.199918        -2.175502
 C         1.737066         1.010965        -2.903506
 C         1.305325         1.375638        -4.298269
 O         2.358538         0.396467        -4.074514
 C         2.541316         1.808189        -1.924680
 C         2.265997         1.120908        -0.616039
 O         2.538179        -0.247035        -0.673015
 H         0.477854         0.147701         1.299547
 H        -0.757708         0.570077         0.267335
 H        -0.175948        -1.182419         0.482323
 H         0.857495        -0.795650        -2.587268
 H        -0.328172         0.556424        -2.178068
 H         0.477739         0.917926        -4.846424
 H         1.566758         2.388374        -4.653708
 H         3.577390         1.970087        -2.150560
 H         2.143876         2.870856        -1.911358
 H         2.528079         1.574874         0.406455
