19
Iteration:  2562
 C         0.107122        -0.145551         0.326976
 C         1.170025         0.252426        -0.768291
 C         0.859806        -0.011879        -2.224627
 C         1.695918         0.927500        -3.020378
 C         1.259656         1.491623        -4.243410
 O         2.260473         0.300827        -4.182403
 C         2.610509         1.816872        -2.001905
 C         2.140124         1.317258        -0.583395
 O         2.545776        -0.059412        -0.379113
 H        -0.540887         0.798857         0.310384
 H        -0.353470        -1.119838        -0.082490
 H         0.519644        -0.274060         1.246570
 H         1.152398        -1.044791        -2.638935
 H        -0.197707         0.122206        -2.146498
 H         0.256172         1.230552        -4.641972
 H         1.670636         2.465834        -4.630050
 H         3.666475         1.521156        -1.869631
 H         2.555749         2.928486        -2.228519
 H         2.104445         2.049322         0.229523
