19
Iteration:   302charge 0 multiplicity 1
 C        -0.112705         0.369759        -0.090813
 C         1.083372         0.189945        -0.892353
 C         1.148032        -0.509147        -2.239705
 C         1.863563         0.741273        -3.003702
 C         1.088220         1.829379        -3.572526
 O         1.946816         0.949414        -4.392116
 C         2.974486         1.106682        -2.095560
 C         2.295154         1.109649        -0.758797
 O         2.438583        -0.076956        -0.078512
 H        -0.088141        -0.397001         0.645039
 H         0.017887         1.254192         0.582624
 H        -1.130153         0.531048        -0.684031
 H         1.864347        -1.379836        -2.199457
 H         0.189356        -0.807554        -2.612979
 H        -0.026077         1.702759        -3.696975
 H         1.529738         2.903430        -3.548509
 H         3.704186         0.330346        -2.223505
 H         3.297146         2.183494        -2.315778
 H         2.233623         2.000570        -0.191255
