19
Iteration:  4474
 C         0.239410        -0.106793         0.523475
 C         1.151059         0.214313        -0.696978
 C         0.716605        -0.003827        -2.199072
 C         1.579745         1.000274        -2.977729
 C         1.411057         1.405492        -4.357555
 O         2.450228         0.503941        -3.992660
 C         2.420492         1.805467        -2.007371
 C         2.111760         1.287424        -0.701112
 O         2.475197        -0.206155        -0.619645
 H         0.329419        -1.263685         0.574954
 H         0.786503         0.274870         1.443683
 H        -0.778649         0.305017         0.437051
 H         1.166037        -0.908386        -2.629731
 H        -0.359041         0.039189        -2.507740
 H         0.586331         1.099559        -5.019026
 H         1.725729         2.387159        -4.750609
 H         3.483171         1.578841        -2.396041
 H         2.351836         2.879078        -2.087588
 H         2.188884         1.938223         0.113652
