19
Iteration:  2221charge 0 multiplicity 1
 C         0.162936        -0.218471         0.359055
 C         1.172174         0.221399        -0.685909
 C         0.724574         0.092573        -2.177672
 C         1.750730         0.897205        -2.981656
 C         1.349252         1.496229        -4.379521
 O         2.264057         0.358196        -4.234834
 C         2.643553         1.795581        -1.912283
 C         2.048925         1.358831        -0.642540
 O         2.540358        -0.077434        -0.397300
 H        -0.931421        -0.169463        -0.209205
 H         0.295908        -1.343671         0.515689
 H         0.086228         0.260580         1.337373
 H         0.757406        -0.947517        -2.554940
 H        -0.233369         0.672862        -2.295367
 H         0.327016         1.221772        -4.579891
 H         1.731813         2.354879        -4.952234
 H         3.672616         1.362747        -2.001416
 H         2.691370         2.875475        -2.034262
 H         2.357939         1.823917         0.317467
