19
Iteration:  2936
 C         0.258441        -0.382336         0.282190
 C         1.128595         0.357337        -0.723161
 C         0.496995         0.579997        -2.084077
 C         1.596339         1.141267        -2.907827
 C         1.445405         1.192823        -4.436281
 O         2.436750         0.252758        -3.743874
 C         2.448187         1.943469        -1.946482
 C         2.366254         1.182720        -0.630593
 O         2.435140        -0.261976        -0.849138
 H         0.240824         0.152749         1.162406
 H        -0.758044        -0.457451        -0.064001
 H         0.759757        -1.444027         0.480093
 H         0.298547        -0.467590        -2.494425
 H        -0.396504         1.185709        -1.845106
 H         0.620945         0.650971        -4.926055
 H         1.863459         1.973611        -5.118119
 H         3.439153         1.990565        -2.229600
 H         2.240740         2.940736        -2.096304
 H         2.709331         1.757302         0.359651
