19
Iteration:  2640
 C         0.076289         0.039438         0.358260
 C         1.088465         0.160147        -0.797402
 C         0.891235        -0.116477        -2.281163
 C         1.785825         0.915727        -2.956976
 C         1.165952         1.531434        -4.143647
 O         2.316464         0.445756        -4.188777
 C         2.619988         1.772829        -2.015266
 C         2.179216         1.225926        -0.645930
 O         2.527903        -0.133341        -0.400798
 H        -0.899166        -0.375906         0.089560
 H         0.660198        -0.476022         1.209909
 H        -0.085170         1.062317         0.674410
 H         1.136584        -1.175751        -2.609500
 H        -0.164978        -0.092410        -2.470911
 H         0.162860         1.217730        -4.472239
 H         1.496030         2.495329        -4.578519
 H         3.629273         1.467759        -2.224771
 H         2.453227         2.862159        -2.125001
 H         2.270777         1.986205         0.108726
