19
Iteration:  3930
 C         0.312778        -0.221023         0.518002
 C         1.073534         0.274842        -0.715000
 C         0.608207         0.294895        -2.164965
 C         1.679577         1.027630        -2.979475
 C         1.446106         1.364774        -4.367364
 O         2.455377         0.318849        -4.059467
 C         2.382754         1.882563        -1.942805
 C         2.166843         1.206359        -0.620450
 O         2.487189        -0.222029        -0.714643
 H         0.206150        -1.318214         0.764164
 H         0.563085         0.480988         1.422714
 H        -0.677496        -0.040013         0.211142
 H         0.457878        -0.807878        -2.506330
 H        -0.309447         0.658678        -2.464643
 H         0.503812         0.952161        -4.793699
 H         1.884306         2.296310        -4.803015
 H         3.457877         2.061671        -1.979321
 H         2.050756         2.900004        -2.059787
 H         2.598506         1.623001         0.236472
