19
Iteration:  1823
 C         0.233372        -0.324702         0.312160
 C         1.148534         0.202820        -0.721201
 C         0.468208         0.440637        -2.038609
 C         1.638652         1.202628        -2.897600
 C         1.526978         1.169436        -4.412959
 O         2.388361         0.200507        -3.756102
 C         2.463920         2.023476        -1.940278
 C         2.267363         1.231435        -0.628654
 O         2.483287        -0.184139        -0.948347
 H         0.672287        -0.685665         1.174375
 H        -0.218674         0.563851         0.772795
 H        -0.477685        -1.230262        -0.011429
 H         0.347005        -0.646907        -2.413116
 H        -0.509538         1.034355        -2.103667
 H         0.641741         0.794422        -4.904928
 H         2.044871         1.993570        -4.960912
 H         3.472273         2.056199        -2.452500
 H         2.262341         3.147003        -1.796435
 H         2.706254         1.678614         0.274151
