19
Iteration:  3909charge 0 multiplicity 1
 C         0.319908        -0.211075         0.412356
 C         1.103964         0.183346        -0.836609
 C         0.570261         0.257749        -2.206704
 C         1.710104         1.000027        -2.892423
 C         1.513707         1.354267        -4.294570
 O         2.356117         0.249724        -3.915538
 C         2.452356         1.959280        -1.985938
 C         2.153771         1.244575        -0.618704
 O         2.475902        -0.147973        -0.747803
 H         0.311623        -1.374855         0.491027
 H         1.098081         0.110879         1.268101
 H        -0.695266        -0.081778         0.578981
 H        -0.037304        -0.618158        -2.609134
 H        -0.274341         0.984302        -2.247053
 H         0.595060         0.958018        -4.764169
 H         1.958428         2.294075        -4.686497
 H         3.466383         2.262439        -2.266679
 H         1.980177         2.980213        -2.012596
 H         2.249034         1.712242         0.311216
