19
Iteration:  4906
 C         0.236367        -0.236029         0.418262
 C         1.119611         0.222297        -0.705471
 C         0.643453         0.217808        -2.163479
 C         1.674922         1.090146        -2.965744
 C         1.408529         1.407641        -4.416930
 O         2.405462         0.313339        -3.932847
 C         2.455689         1.924779        -1.977362
 C         2.182398         1.193884        -0.613314
 O         2.477309        -0.223387        -0.697997
 H         0.969459        -0.525546         1.224097
 H        -0.408972         0.592482         0.773685
 H        -0.257147        -1.176506         0.236137
 H         0.631255        -0.801604        -2.612504
 H        -0.288315         0.669031        -2.411097
 H         0.475420         1.106427        -4.871202
 H         1.852868         2.266090        -4.891707
 H         3.502549         2.035891        -2.211360
 H         2.046164         3.019374        -1.920590
 H         2.551549         1.843464         0.249153
