19
Iteration:  2288
 C         0.233491        -0.048893         0.522992
 C         1.096727         0.194476        -0.656422
 C         0.635899         0.139519        -2.260458
 C         1.654555         1.048525        -2.949631
 C         1.509104         1.300433        -4.383590
 O         2.468091         0.349148        -4.028868
 C         2.312460         1.975951        -1.935886
 C         2.176044         1.215667        -0.585221
 O         2.535567        -0.246147        -0.768433
 H        -0.511441         0.851994         0.750197
 H        -0.471401        -0.986349         0.374269
 H         0.813831        -0.366850         1.301586
 H         0.870306        -0.952512        -2.475017
 H        -0.435331         0.327333        -2.515015
 H         0.618429         0.814885        -4.813614
 H         1.808245         2.240073        -4.849325
 H         3.387187         2.203635        -2.242855
 H         1.894514         2.964401        -1.802186
 H         2.405264         1.663961         0.383679
