19
Iteration:  1804
 C         0.282752        -0.181583         0.400470
 C         1.112154         0.251687        -0.754026
 C         0.523087         0.399791        -2.176193
 C         1.632462         1.074529        -2.891332
 C         1.524809         1.273096        -4.383752
 O         2.406722         0.253675        -3.753824
 C         2.374507         1.963456        -1.916510
 C         2.257819         1.157082        -0.669453
 O         2.525517        -0.269317        -0.906654
 H         0.855602        -0.225561         1.370696
 H        -0.520853         0.467520         0.518761
 H        -0.069709        -1.274912         0.136647
 H         0.057725        -0.354863        -2.740046
 H        -0.298832         1.116724        -1.981594
 H         0.702644         0.812083        -4.897219
 H         1.862543         2.178333        -4.905008
 H         3.448134         2.065790        -2.199843
 H         1.848916         2.938669        -1.972141
 H         2.562853         1.580937         0.308628
