19
Iteration:   511
 C         0.166130        -0.076954         0.424453
 C         1.110769         0.224939        -0.769009
 C         0.448628         0.506987        -2.135344
 C         1.644421         1.125478        -2.924918
 C         1.526951         1.430736        -4.321912
 O         2.316608         0.244511        -4.038820
 C         2.598496         1.768474        -1.864761
 C         2.297924         1.043013        -0.632890
 O         2.524874        -0.368065        -0.808811
 H         0.409532        -1.083065         0.532281
 H         0.455489         0.342254         1.454050
 H        -0.921433         0.107532         0.275757
 H         0.009239        -0.323602        -2.690686
 H        -0.325619         1.264827        -1.849857
 H         0.567594         1.249537        -4.934572
 H         2.191846         2.277821        -4.617073
 H         3.591075         1.987640        -2.187208
 H         2.216598         2.859946        -1.705194
 H         2.673777         1.326470         0.349120
