19
Iteration:  1367
 C         0.028938         0.043233         0.436180
 C         1.149341         0.183170        -0.669494
 C         0.875509        -0.123212        -2.250609
 C         1.708923         0.940539        -3.030624
 C         1.241781         1.639396        -4.289945
 O         2.252943         0.649595        -4.418649
 C         2.719365         1.434979        -2.036829
 C         2.176563         1.233899        -0.741546
 O         2.504387        -0.131769        -0.134237
 H         0.400981         0.513052         1.508026
 H        -1.011583         0.264410         0.192499
 H         0.101400        -1.014115         0.632899
 H         1.226370        -1.141128        -2.454166
 H        -0.203099        -0.032871        -2.301906
 H         0.258321         1.283950        -4.634153
 H         1.465006         2.708005        -4.512096
 H         3.629430         0.845138        -2.061892
 H         3.067659         2.439037        -2.205899
 H         1.993171         1.954764         0.056469
