19
Iteration:   820
 C        -0.107162         0.152519         0.007813
 C         1.202302         0.157065        -0.778728
 C         1.145315        -0.390759        -2.197663
 C         1.808613         0.732319        -3.028144
 C         1.047996         1.787098        -3.849431
 O         2.004882         0.750859        -4.371010
 C         2.966490         1.244229        -2.103941
 C         2.230829         1.273829        -0.785630
 O         2.432567         0.031437         0.008880
 H        -0.000942         0.306616         1.185255
 H        -0.860305         1.009340        -0.388097
 H        -0.577891        -0.798246        -0.008961
 H         1.831200        -1.274335        -2.250407
 H         0.169484        -0.704577        -2.542709
 H        -0.081852         1.783891        -4.008404
 H         1.462860         2.828395        -3.937119
 H         3.859213         0.698815        -2.320319
 H         3.344568         2.244681        -2.446757
 H         2.164410         2.242858        -0.269199
