19
Iteration:  1309
 C        -0.060488        -0.052436         0.229408
 C         1.198535         0.234031        -0.763019
 C         0.849357         0.039260        -2.131730
 C         1.747599         0.856525        -2.951125
 C         1.255277         1.543937        -4.151781
 O         2.137444         0.393347        -4.215047
 C         2.741589         1.744444        -1.973675
 C         2.311208         1.236719        -0.605413
 O         2.540622        -0.122095        -0.458290
 H         0.078880         0.224179         1.212674
 H        -0.840965         0.645466        -0.153338
 H        -0.461354        -1.181418         0.074089
 H         1.104184        -1.041562        -2.346637
 H        -0.225390         0.151216        -2.469494
 H         0.275048         1.287025        -4.505611
 H         1.588967         2.532814        -4.432339
 H         3.792687         1.376617        -2.095840
 H         2.582175         2.878524        -2.196246
 H         2.591713         1.876653         0.237866
