19
Iteration:  4856
 C         0.232401        -0.365521         0.515941
 C         1.203378         0.171978        -0.778771
 C         0.541574         0.368009        -2.108965
 C         1.604561         1.019300        -2.911010
 C         1.663976         1.407633        -4.420786
 O         2.286519         0.244627        -3.917737
 C         2.399637         1.956639        -1.961912
 C         2.190857         1.211024        -0.662969
 O         2.512191        -0.116505        -0.802544
 H         0.597349         0.070050         1.463665
 H        -0.796914        -0.162907         0.365826
 H         0.475986        -1.430892         0.635903
 H         0.303528        -0.571393        -2.621776
 H        -0.423011         0.966234        -1.966127
 H         0.920642         1.205345        -5.234445
 H         2.198062         2.338643        -4.710697
 H         3.482317         2.101662        -2.219775
 H         1.945453         2.855311        -2.069610
 H         2.330439         1.664428         0.202547
