19
Iteration:  2190
 C         0.179735        -0.162053         0.357450
 C         1.018122         0.277220        -0.792099
 C         0.861732        -0.022897        -2.208150
 C         1.725298         0.921851        -2.965381
 C         1.311788         1.545250        -4.263649
 O         2.269258         0.411897        -4.152849
 C         2.637588         1.735644        -2.014907
 C         2.197077         1.313716        -0.709082
 O         2.429889        -0.081164        -0.334468
 H        -0.933898        -0.266139        -0.015792
 H         0.485829        -1.259030         0.684563
 H         0.194055         0.333497         1.237347
 H         1.166230        -1.098937        -2.493142
 H        -0.205448         0.038845        -2.558116
 H         0.288519         1.311635        -4.609005
 H         1.705182         2.491792        -4.710412
 H         3.728909         1.444037        -2.256271
 H         2.564351         2.852404        -2.096055
 H         2.489018         1.882763         0.150176
