19
Iteration:  2299
 C         0.261050        -0.093687         0.568564
 C         1.098726         0.185865        -0.793427
 C         0.570225         0.139355        -2.186296
 C         1.639824         1.088173        -2.926894
 C         1.488259         1.264943        -4.356728
 O         2.563451         0.332069        -4.000815
 C         2.271171         2.000646        -1.902012
 C         2.185700         1.158005        -0.667195
 O         2.525421        -0.212768        -0.771099
 H        -0.252369         0.988824         0.822297
 H        -0.624558        -0.835163         0.314065
 H         0.760848        -0.234869         1.437358
 H         0.692686        -0.842458        -2.790538
 H        -0.441828         0.562481        -2.378027
 H         0.575891         0.930946        -4.880975
 H         1.861378         2.188401        -4.800186
 H         3.395401         2.117242        -1.999595
 H         1.702737         2.903532        -1.995350
 H         2.588007         1.704539         0.167621
