19
Iteration:  4325charge 0 multiplicity 1
 C         0.313239        -0.189001         0.491914
 C         1.198013         0.089568        -0.806213
 C         0.492026         0.288330        -2.121412
 C         1.544925         1.046407        -2.981923
 C         1.643864         1.340867        -4.492220
 O         2.429684         0.277575        -3.808880
 C         2.177335         2.070898        -1.919634
 C         2.211887         1.154506        -0.619200
 O         2.594892        -0.187020        -0.820943
 H        -0.559278        -0.807115         0.211108
 H         0.894468        -0.561958         1.269918
 H        -0.142696         0.840755         0.802198
 H         0.193735        -0.729404        -2.616164
 H        -0.384239         0.930076        -2.001863
 H         0.963960         0.746208        -5.164765
 H         2.470775         2.033334        -4.865826
 H         3.138675         2.399838        -2.336005
 H         1.388642         2.904146        -1.897511
 H         2.524276         1.489454         0.441042
