19
Iteration:  1984
 C         0.130395        -0.023187         0.353468
 C         1.209874         0.203644        -0.784635
 C         0.748245         0.039678        -2.236081
 C         1.706842         0.952796        -2.977245
 C         1.301705         1.432626        -4.245575
 O         2.336388         0.449536        -4.059289
 C         2.494865         1.824326        -1.985177
 C         2.238338         1.204955        -0.672285
 O         2.520028        -0.213621        -0.484521
 H        -0.797223        -0.265813        -0.153858
 H         0.425851        -0.923678         1.112977
 H        -0.071325         0.888006         0.873440
 H         0.942017        -1.041427        -2.522892
 H        -0.273680         0.360727        -2.293407
 H         0.470135         0.908454        -4.745943
 H         1.592790         2.420783        -4.709365
 H         3.567139         2.017893        -2.121222
 H         1.982335         2.785232        -2.029425
 H         2.352773         1.774678         0.244316
