19
Iteration:  2332
 C         0.358579        -0.209717         0.419135
 C         1.152124         0.304334        -0.743414
 C         0.484114         0.315017        -2.156130
 C         1.502010         1.032234        -2.998908
 C         1.581795         1.247329        -4.449815
 O         2.515516         0.346533        -3.765675
 C         2.215681         1.963508        -1.981077
 C         2.222036         1.260944        -0.689065
 O         2.557221        -0.297223        -0.716996
 H        -0.355264         0.671610         0.738323
 H        -0.370725        -1.042230         0.098959
 H         0.868471        -0.558905         1.210584
 H         0.259590        -0.696692        -2.628190
 H        -0.517342         0.801752        -2.049537
 H         0.898872         0.751472        -5.156967
 H         2.139676         2.108256        -4.789926
 H         3.263505         2.095472        -2.341370
 H         1.719790         2.912238        -2.041995
 H         2.591237         1.521588         0.260849
