19
Iteration:  2156charge 0 multiplicity 1
 C         0.055049         0.013810         0.372119
 C         1.131473         0.141873        -0.715009
 C         0.912387        -0.123664        -2.161127
 C         1.664784         0.918631        -3.021308
 C         1.247708         1.460398        -4.275887
 O         2.375310         0.579715        -4.288982
 C         2.493028         1.696789        -1.965503
 C         2.172537         1.188331        -0.626865
 O         2.579425        -0.089048        -0.357153
 H        -0.814098         0.685213        -0.118951
 H        -0.388151        -1.014970         0.485617
 H         0.335409         0.557449         1.208434
 H         1.074109        -1.188288        -2.491987
 H        -0.226055         0.030455        -2.268061
 H         0.356043         1.196678        -4.825655
 H         1.664733         2.478860        -4.418688
 H         3.610368         1.436777        -1.959248
 H         2.362554         2.755097        -2.241662
 H         2.481936         1.979421         0.074577
