19
Iteration:  2377charge 0 multiplicity 1
 C         0.396618        -0.344968         0.295049
 C         1.120548         0.250484        -0.765447
 C         0.495713         0.433342        -2.127230
 C         1.646550         1.084761        -2.952547
 C         1.567144         1.234360        -4.390061
 O         2.378072         0.076216        -3.756856
 C         2.336140         1.979752        -1.913144
 C         2.146010         1.333792        -0.590024
 O         2.519445        -0.063376        -0.858323
 H        -0.688982        -0.001724         0.274289
 H         0.472185        -1.544723         0.187159
 H         0.752000        -0.206700         1.316505
 H         0.080131        -0.600888        -2.544854
 H        -0.363335         1.084147        -2.405821
 H         0.601098         0.859606        -4.774572
 H         2.181661         2.001413        -4.864847
 H         3.431999         1.985148        -2.101510
 H         1.992036         3.034192        -1.858885
 H         2.527884         1.843372         0.319240
