19
Iteration:  3019
 C         0.243471        -0.164434         0.509507
 C         1.077612         0.239265        -0.697075
 C         0.517982         0.166822        -2.161983
 C         1.610367         1.000710        -3.001490
 C         1.544986         1.520281        -4.371911
 O         2.405710         0.335736        -3.986260
 C         2.446096         1.859760        -2.037043
 C         2.257946         1.206361        -0.633822
 O         2.505966        -0.256333        -0.677569
 H         0.760982        -0.736915         1.382617
 H        -0.126155         0.830414         0.923365
 H        -0.612652        -0.759167         0.333570
 H         0.531365        -0.834206        -2.525825
 H        -0.486717         0.543946        -2.162656
 H         0.644361         1.379537        -4.960768
 H         2.167405         2.368862        -4.644945
 H         3.495811         1.695691        -2.512837
 H         1.846954         2.842907        -2.194797
 H         2.662875         1.767322         0.090358
