19
Iteration:  3207charge 0 multiplicity 1
 C         0.088994         0.005676         0.277378
 C         1.194325         0.210031        -0.730238
 C         0.746610         0.037404        -2.248596
 C         1.654027         1.000611        -2.954537
 C         1.277148         1.398391        -4.316899
 O         2.305555         0.367051        -4.079355
 C         2.475877         1.956064        -1.930206
 C         2.231724         1.151385        -0.572718
 O         2.692433        -0.234879        -0.483397
 H        -0.598084        -0.724613        -0.221580
 H         0.408853        -0.327172         1.256036
 H        -0.521207         1.024145         0.233759
 H         0.997512        -0.962632        -2.433342
 H        -0.248796         0.354733        -2.445542
 H         0.295127         1.033175        -4.657553
 H         1.669134         2.273195        -4.815285
 H         3.538846         1.895696        -2.210098
 H         1.821966         2.886704        -1.944522
 H         2.505401         1.632146         0.338870
