19
Iteration:   604
 C         0.240663        -0.278187         0.363195
 C         1.058054         0.188769        -0.819605
 C         0.441868         0.640404        -2.058003
 C         1.640672         1.223870        -2.913759
 C         1.636495         1.290502        -4.425083
 O         2.251319         0.118662        -3.749714
 C         2.477801         1.948152        -1.927989
 C         2.331430         1.071876        -0.628676
 O         2.536048        -0.290631        -0.902840
 H        -0.860660        -0.673831         0.105090
 H         0.824744        -1.075985         0.673721
 H         0.247646         0.487001         1.110022
 H        -0.134120        -0.111089        -2.653452
 H        -0.176327         1.534191        -1.810066
 H         0.705831         1.271176        -4.929679
 H         2.438534         1.748410        -4.952709
 H         3.491999         2.357408        -2.281291
 H         2.088065         2.955965        -1.834968
 H         2.700234         1.537329         0.314326
