19
Iteration:   204
 C        -0.002417         0.234536         0.283370
 C         1.111681         0.135820        -0.773019
 C         0.784778        -0.114516        -2.287018
 C         1.735368         0.915654        -2.986981
 C         1.240887         1.695675        -4.135106
 O         2.176264         0.643453        -4.326756
 C         2.823744         1.511213        -1.938323
 C         2.340434         1.063949        -0.622321
 O         2.459107        -0.294770        -0.314397
 H        -0.585159        -0.645082         0.181015
 H         0.416780         0.037366         1.337563
 H        -0.525118         1.205993         0.344165
 H         0.959755        -1.205543        -2.507381
 H        -0.207408         0.209883        -2.573122
 H         0.251939         1.594097        -4.650759
 H         1.731003         2.725486        -4.313008
 H         3.870315         1.242882        -2.059302
 H         2.767823         2.650514        -1.867744
 H         2.586220         1.613152         0.258142
