19
Iteration:  3877charge 0 multiplicity 1
 C         0.218691        -0.360288         0.394732
 C         1.145572         0.239539        -0.705323
 C         0.550703         0.339778        -2.054782
 C         1.463563         1.187285        -2.998292
 C         1.686478         1.254442        -4.484538
 O         2.306655         0.264477        -3.818829
 C         2.375257         1.907376        -2.003397
 C         2.274422         1.289230        -0.639198
 O         2.590092        -0.135979        -0.745920
 H        -0.022220        -1.260732        -0.240434
 H         0.804215        -0.792664         1.362369
 H        -0.668486         0.157941         0.744362
 H         0.395300        -0.700642        -2.420948
 H        -0.514377         0.887933        -2.033622
 H         0.876517         0.858495        -5.119598
 H         2.230729         2.090999        -4.966402
 H         3.417319         1.980558        -2.350952
 H         1.948296         2.996169        -1.949321
 H         2.460548         1.760239         0.285504
