19
Iteration:  4216
 C         0.135034        -0.227640         0.321099
 C         1.122477         0.261869        -0.751533
 C         0.726495         0.036427        -2.150126
 C         1.571773         1.009601        -2.958538
 C         1.433450         1.533236        -4.354396
 O         2.253252         0.365997        -4.103644
 C         2.543906         1.781310        -2.019063
 C         2.234214         1.276052        -0.620225
 O         2.596571        -0.112432        -0.438526
 H         0.199481        -1.277915         0.653515
 H         0.260070         0.297441         1.236125
 H        -0.913726        -0.044111        -0.066760
 H         1.030992        -1.032851        -2.465238
 H        -0.295858         0.092456        -2.381941
 H         0.504648         1.433942        -4.941288
 H         1.908947         2.518815        -4.551752
 H         3.570902         1.552132        -2.168133
 H         2.539757         2.865949        -2.213398
 H         2.239930         1.809641         0.351720
