19
Iteration:  1443
 C        -0.069503         0.180627         0.101910
 C         1.132390         0.177828        -0.786335
 C         1.104869        -0.221996        -2.227558
 C         1.845368         0.909450        -2.896896
 C         1.137604         1.538109        -4.045948
 O         1.943313         0.517204        -4.389706
 C         2.837702         1.659761        -1.949691
 C         2.283466         1.258534        -0.628888
 O         2.521319        -0.190094        -0.216012
 H         0.074277         0.303858         1.213324
 H        -0.746811         0.906831        -0.288314
 H        -0.603314        -0.714404        -0.153886
 H         1.600055        -1.186362        -2.403334
 H         0.157608        -0.348023        -2.753033
 H         0.030639         1.474561        -4.146361
 H         1.422205         2.555668        -4.306432
 H         3.851737         1.392584        -2.256777
 H         2.930508         2.758136        -1.908033
 H         2.430304         1.913601         0.280221
