19
Iteration:  3077charge 0 multiplicity 1
 C         0.069604        -0.087604         0.327550
 C         1.104312         0.235082        -0.717199
 C         0.802026         0.135739        -2.104419
 C         1.722318         1.054817        -2.949815
 C         1.236031         1.372271        -4.322773
 O         2.331177         0.420379        -4.132576
 C         2.585250         1.834052        -1.981609
 C         2.311889         1.146549        -0.626226
 O         2.525879        -0.241903        -0.514041
 H         0.433642        -0.927681         0.789705
 H        -0.206231         0.695799         1.011229
 H        -0.887749        -0.328055        -0.258583
 H         0.813002        -0.862419        -2.660159
 H        -0.260930         0.491628        -2.216660
 H         0.288567         1.016038        -4.743058
 H         1.565832         2.377717        -4.634964
 H         3.595605         2.022595        -2.360842
 H         2.283299         2.927879        -2.009648
 H         2.541719         1.754975         0.307531
