19
Iteration:  3704charge 0 multiplicity 1
 C         0.167630        -0.228924         0.347039
 C         1.093093         0.377589        -0.684303
 C         0.662812         0.145754        -2.188345
 C         1.590695         0.992672        -2.999584
 C         1.319959         1.406150        -4.378776
 O         2.405660         0.438871        -4.059678
 C         2.638391         1.756459        -2.006844
 C         2.236137         1.264987        -0.679730
 O         2.488447        -0.187065        -0.420238
 H         0.511406        -1.239912         0.389127
 H         0.448421         0.118316         1.418401
 H        -0.875344        -0.371827        -0.125019
 H         0.657201        -0.881598        -2.346606
 H        -0.303793         0.637558        -2.293605
 H         0.470206         1.043441        -4.944070
 H         1.774586         2.335702        -4.726766
 H         3.557486         1.396073        -2.412684
 H         2.482210         2.808693        -2.012783
 H         2.318503         1.874686         0.206933
