19
Iteration:   505charge 0 multiplicity 1
 C         0.138529        -0.075038         0.418396
 C         1.121652         0.222520        -0.762368
 C         0.524272         0.479917        -2.162499
 C         1.623138         1.099768        -2.918420
 C         1.512756         1.454635        -4.294204
 O         2.281224         0.261544        -4.081332
 C         2.579618         1.753229        -1.911948
 C         2.347886         1.076183        -0.593470
 O         2.509230        -0.363054        -0.765795
 H         0.199164        -1.252003         0.636572
 H         0.450995         0.545839         1.294051
 H        -0.899090         0.057790         0.155251
 H         0.125612        -0.424969        -2.653468
 H        -0.287981         1.166391        -1.854159
 H         0.673883         1.385771        -4.907894
 H         2.127541         2.301080        -4.580218
 H         3.675945         1.903802        -2.172146
 H         2.297519         2.773892        -1.729939
 H         2.664666         1.338398         0.432136
