19
Iteration:  3146
 C         0.268125        -0.108126         0.478064
 C         1.074921         0.186881        -0.695152
 C         0.797020         0.031948        -2.271829
 C         1.667945         0.982709        -3.006640
 C         1.357220         1.514852        -4.328458
 O         2.323981         0.447572        -4.265821
 C         2.634037         1.650895        -1.959140
 C         2.074272         1.262093        -0.632930
 O         2.439017        -0.093952        -0.423638
 H         0.094213        -1.179825         0.552465
 H         0.793130         0.078811         1.411193
 H        -0.669819         0.485239         0.530537
 H         0.663622        -1.091824        -2.577460
 H        -0.336784         0.272229        -2.340099
 H         0.365528         1.226708        -4.744724
 H         1.801486         2.451930        -4.699802
 H         3.710158         1.490373        -2.019024
 H         2.544549         2.722508        -2.056844
 H         2.191899         1.953816         0.344011
