19
Iteration:  4162
 C         0.192221         0.003109         0.352781
 C         1.190519         0.153709        -0.803303
 C         0.728242        -0.043735        -2.244994
 C         1.697466         0.950997        -2.949046
 C         1.257251         1.444218        -4.239978
 O         2.371285         0.545552        -4.267924
 C         2.565926         1.722237        -1.962172
 C         2.205330         1.180110        -0.648372
 O         2.479634        -0.131442        -0.316124
 H         0.308017        -1.061340         0.650564
 H         0.238931         0.652496         1.176266
 H        -0.916576        -0.095063         0.100488
 H         0.867853        -1.038872        -2.826932
 H        -0.208815         0.429300        -2.464776
 H         0.286837         1.056826        -4.563125
 H         1.445187         2.489609        -4.469855
 H         3.599076         1.637632        -2.155733
 H         2.404917         2.813515        -2.048809
 H         2.172892         1.883672         0.270302
