19
Iteration:  2649charge 0 multiplicity 1
 C         0.117793         0.080352         0.290602
 C         1.104555         0.217914        -0.790371
 C         0.933795        -0.142212        -2.202636
 C         1.738315         0.927067        -2.968560
 C         1.212538         1.499205        -4.152710
 O         2.274053         0.484589        -4.218272
 C         2.554772         1.751071        -2.028260
 C         2.214883         1.203884        -0.639324
 O         2.501628        -0.151487        -0.399262
 H        -0.844721        -0.650158         0.146842
 H         0.437703        -0.426188         1.266470
 H        -0.285673         0.969247         0.590193
 H         1.273715        -1.151060        -2.590861
 H        -0.090605         0.021602        -2.380091
 H         0.185600         1.171584        -4.417230
 H         1.704579         2.390851        -4.604368
 H         3.684488         1.599446        -2.003952
 H         2.474761         2.872218        -2.141730
 H         2.379734         1.747116         0.289056
