19
Iteration:   842
 C        -0.091095         0.201655        -0.073314
 C         1.176231         0.205291        -0.812023
 C         1.153001        -0.315741        -2.245766
 C         1.928757         0.781332        -2.932258
 C         1.024927         1.565822        -3.769728
 O         1.937800         0.756021        -4.450945
 C         2.965323         1.301227        -2.049570
 C         2.272761         1.304995        -0.677054
 O         2.428868        -0.038665        -0.060755
 H         0.152818         0.126568         1.055061
 H        -0.636323         1.233743        -0.278276
 H        -0.807058        -0.530190        -0.261957
 H         1.663837        -1.274138        -2.178207
 H         0.145707        -0.392534        -2.642840
 H        -0.061377         1.268519        -3.983012
 H         1.068098         2.683540        -3.846123
 H         3.821672         0.681847        -2.176199
 H         3.327735         2.306238        -2.330654
 H         2.144259         2.212710        -0.067707
