19
Iteration:  3805charge 0 multiplicity 1
 C         0.297399        -0.254971         0.574406
 C         1.079329         0.188159        -0.692994
 C         0.544022         0.278861        -2.220071
 C         1.579232         1.152724        -2.996934
 C         1.582636         1.220400        -4.456612
 O         2.471662         0.344065        -3.843857
 C         2.372237         1.982885        -1.984824
 C         2.199700         1.249062        -0.649750
 O         2.480158        -0.244349        -0.830359
 H        -0.369860        -1.039725         0.316761
 H         0.854605        -0.550071         1.366515
 H        -0.211373         0.704159         0.956103
 H         0.348480        -0.644247        -2.752098
 H        -0.366699         0.760757        -2.035531
 H         0.721892         0.798275        -4.975256
 H         1.992111         2.115643        -4.915817
 H         3.411405         2.168697        -2.265343
 H         1.888694         2.902263        -1.771607
 H         2.500937         1.698948         0.361996
