19
Iteration:  2790
 C         0.120069        -0.057815         0.288848
 C         1.214630         0.140051        -0.752858
 C         0.683232         0.106252        -2.148002
 C         1.696827         1.042001        -2.962423
 C         1.296225         1.496727        -4.344187
 O         2.308046         0.398167        -4.114534
 C         2.553176         1.820349        -2.002689
 C         2.214632         1.190398        -0.636493
 O         2.578145        -0.264306        -0.416839
 H         0.577481        -0.308739         1.367026
 H        -0.373995         0.943593         0.480033
 H        -0.656121        -0.691421         0.038210
 H         0.730523        -0.856805        -2.666858
 H        -0.407436         0.419033        -1.973741
 H         0.392003         1.142865        -4.871736
 H         1.660303         2.410213        -4.826605
 H         3.662301         1.715583        -2.171219
 H         2.426080         2.916938        -2.093624
 H         2.320389         1.624649         0.298135
