19
Iteration:  4308charge 0 multiplicity 1
 C         0.283341        -0.146108         0.387629
 C         1.171710         0.196205        -0.749783
 C         0.545642         0.161383        -2.202826
 C         1.491836         1.111680        -2.938076
 C         1.592300         1.307097        -4.390472
 O         2.438425         0.341895        -3.745955
 C         2.255275         1.948881        -1.971924
 C         2.243497         1.182163        -0.709743
 O         2.572896        -0.231409        -0.777338
 H        -0.585531        -0.751712         0.142863
 H         0.906067        -0.706632         1.174045
 H        -0.023618         0.766641         0.870852
 H         0.585533        -0.768068        -2.689321
 H        -0.503451         0.586381        -2.127662
 H         0.757663         0.986870        -4.973287
 H         1.988451         2.243260        -4.677925
 H         3.239859         2.253068        -2.354168
 H         1.786170         2.914065        -1.806491
 H         2.520064         1.885017         0.099689
