19
Iteration:  4360
 C         0.439357        -0.375982         0.409962
 C         1.041401         0.263421        -0.746545
 C         0.458369         0.377293        -2.181223
 C         1.617726         1.043865        -2.922922
 C         1.598766         1.266366        -4.361956
 O         2.464228         0.227187        -3.737856
 C         2.306835         2.051074        -1.999637
 C         2.238960         1.224837        -0.636020
 O         2.442241        -0.154440        -0.865494
 H         0.217088        -1.408773         0.268710
 H         1.049255        -0.308170         1.325597
 H        -0.510437         0.212745         0.709300
 H         0.142283        -0.609110        -2.628435
 H        -0.356380         1.056591        -2.213090
 H         0.832486         0.870702        -5.024447
 H         2.060189         2.036319        -4.999026
 H         3.243692         2.338781        -2.422328
 H         1.716439         3.032307        -2.121220
 H         2.537069         1.719180         0.403566
