19
Iteration:  3354charge 0 multiplicity 1
 C         0.198831        -0.406801         0.377295
 C         1.119155         0.306037        -0.708057
 C         0.506884         0.429903        -2.123830
 C         1.582438         1.074158        -2.969526
 C         1.493209         1.204181        -4.410515
 O         2.466784         0.233428        -3.777286
 C         2.394125         2.004187        -1.999737
 C         2.277493         1.293233        -0.655921
 O         2.523708        -0.144117        -0.807229
 H         0.156769        -1.389435         0.004995
 H         0.783739        -0.600540         1.355121
 H        -0.761056         0.203541         0.546138
 H         0.313326        -0.658845        -2.362651
 H        -0.316060         1.048216        -2.051202
 H         0.676740         0.777940        -4.996698
 H         2.026930         2.086278        -4.809078
 H         3.383973         1.827030        -2.491520
 H         2.017332         3.057186        -1.750094
 H         2.856759         1.682491         0.173669
