19
Iteration:  3980charge 0 multiplicity 1
 C         0.143199        -0.018011         0.330961
 C         1.182479         0.186024        -0.806687
 C         0.738222         0.074514        -2.203102
 C         1.619844         0.967149        -2.945266
 C         1.340025         1.431859        -4.286933
 O         2.359327         0.390008        -4.076139
 C         2.440972         1.859245        -1.970465
 C         2.258782         1.222245        -0.596119
 O         2.577925        -0.236143        -0.497208
 H         0.104930        -1.072566         0.575602
 H         0.470830         0.411318         1.230722
 H        -0.941283         0.264254         0.046153
 H         0.810129        -0.804551        -2.782066
 H        -0.400422         0.271728        -2.277438
 H         0.386592         1.230725        -4.795526
 H         1.781792         2.368069        -4.656437
 H         3.486461         1.868149        -2.393232
 H         2.126780         2.935410        -2.096363
 H         2.353794         1.703874         0.438906
