19
Iteration:   584
 C         0.338603        -0.291401         0.383872
 C         1.190504         0.231054        -0.802224
 C         0.401487         0.709238        -2.106526
 C         1.589585         1.166594        -2.905044
 C         1.749621         1.250229        -4.333244
 O         2.242423         0.105029        -3.644685
 C         2.408731         1.987747        -1.914308
 C         2.319837         1.119916        -0.700472
 O         2.403566        -0.324265        -1.061042
 H        -0.518868        -0.848965        -0.126207
 H         0.778442        -1.051005         0.907249
 H         0.055492         0.637462         1.078400
 H        -0.157379        -0.060112        -2.683556
 H        -0.240161         1.559388        -1.866961
 H         0.918762         0.881215        -4.918024
 H         2.270206         2.120130        -4.622359
 H         3.538725         2.177919        -2.141198
 H         2.133012         2.979386        -1.712799
 H         2.749616         1.336932         0.289444
