19
Iteration:  4193
 C         0.082159        -0.150811         0.441990
 C         1.100064         0.221055        -0.667729
 C         0.835314        -0.035646        -2.134684
 C         1.731884         0.969196        -2.947413
 C         1.363031         1.530079        -4.310326
 O         2.279623         0.422346        -4.228057
 C         2.580767         1.756061        -1.983848
 C         2.226237         1.310781        -0.625110
 O         2.440323        -0.106103        -0.560653
 H         0.408826        -1.168890         0.794234
 H         0.020539         0.399638         1.369769
 H        -0.874896        -0.291135        -0.040158
 H         1.228799        -1.041034        -2.493177
 H        -0.113111        -0.005382        -2.528730
 H         0.326758         1.380654        -4.733587
 H         1.765261         2.521957        -4.642398
 H         3.662335         1.642256        -2.126256
 H         2.470410         2.827277        -2.144822
 H         2.399293         1.791049         0.269098
