19
Iteration:  1975
 C         0.134289        -0.014957         0.311940
 C         1.145813         0.151394        -0.705017
 C         0.772046         0.075561        -2.145399
 C         1.707183         0.969765        -2.936392
 C         1.268613         1.392940        -4.325016
 O         2.417258         0.419631        -4.129143
 C         2.433711         1.908521        -1.995138
 C         2.218836         1.176552        -0.621702
 O         2.556503        -0.248619        -0.528766
 H        -0.791281        -0.293450        -0.050587
 H         0.396352        -0.641910         1.251750
 H         0.044785         1.020274         0.888089
 H         0.814414        -0.821489        -2.825549
 H        -0.224354         0.449148        -2.280524
 H         0.355674         1.032726        -4.792067
 H         1.612831         2.419351        -4.602739
 H         3.492396         1.852767        -2.152524
 H         2.103758         2.915901        -1.830569
 H         2.308285         1.724575         0.301785
