19
Iteration:   330charge 0 multiplicity 1
 C        -0.149246         0.460708        -0.166569
 C         1.187858         0.123254        -0.748658
 C         1.195169        -0.444378        -2.227909
 C         1.905064         0.745810        -2.983091
 C         0.978953         1.763758        -3.615031
 O         1.894571         0.938742        -4.392827
 C         3.045666         1.183649        -2.118688
 C         2.409647         1.151601        -0.716823
 O         2.347190        -0.166901        -0.095500
 H        -0.608063        -0.555507         0.173221
 H        -0.058123         1.029918         0.774141
 H        -0.832793         0.833336        -0.902534
 H         1.796011        -1.346061        -2.343891
 H         0.170578        -0.744058        -2.553122
 H        -0.052603         1.522571        -3.736453
 H         1.244591         2.787458        -3.692521
 H         3.950584         0.501574        -2.260766
 H         3.192230         2.197036        -2.405884
 H         2.293213         1.942281         0.070156
