19
Iteration:   385
 C        -0.092861         0.340780         0.015684
 C         1.103954         0.187401        -0.733838
 C         1.134216        -0.295888        -2.172750
 C         1.776453         0.873694        -2.931817
 C         1.095633         1.743390        -3.896150
 O         1.944744         0.763052        -4.401197
 C         2.974492         1.381298        -2.068847
 C         2.369164         1.042560        -0.719713
 O         2.408685        -0.242853        -0.153538
 H        -0.940550        -0.317045        -0.449467
 H         0.114293         0.221682         1.096292
 H        -0.511833         1.358462        -0.105655
 H         1.791397        -1.168419        -2.292530
 H         0.132311        -0.583849        -2.527375
 H         0.072327         1.696732        -4.163224
 H         1.458636         2.768266        -3.911603
 H         3.922443         0.711994        -2.161312
 H         3.376020         2.317816        -2.289476
 H         2.434936         1.715550         0.154550
