19
Iteration:  4091
 C         0.111411        -0.085206         0.304073
 C         1.174279         0.285350        -0.776780
 C         0.913941        -0.113099        -2.228135
 C         1.822782         0.852093        -2.993141
 C         1.240721         1.522512        -4.184567
 O         2.234654         0.437595        -4.241197
 C         2.593244         1.799824        -1.947723
 C         2.135259         1.254226        -0.644751
 O         2.501422        -0.138188        -0.372987
 H        -0.755214        -0.603641        -0.149773
 H         0.596959        -0.390544         1.303572
 H        -0.506078         0.763934         0.653560
 H         1.074066        -1.165589        -2.436551
 H        -0.161878         0.266350        -2.478116
 H         0.182561         1.132612        -4.320340
 H         1.596311         2.541026        -4.521963
 H         3.735711         1.897932        -2.234805
 H         2.364315         2.891552        -2.106742
 H         2.051315         2.003022         0.151192
