19
Iteration:  3873
 C         0.203212        -0.406207         0.390064
 C         1.135285         0.275145        -0.702566
 C         0.541159         0.329368        -2.051462
 C         1.442429         1.182383        -3.006591
 C         1.686297         1.249596        -4.493349
 O         2.311017         0.259576        -3.803659
 C         2.393149         1.970272        -2.009225
 C         2.283012         1.286824        -0.650416
 O         2.592859        -0.145913        -0.737649
 H        -0.157457        -1.318305        -0.171708
 H         0.755135        -0.804275         1.252827
 H        -0.566050         0.295893         0.751566
 H         0.405062        -0.772372        -2.402467
 H        -0.317971         0.904101        -1.941880
 H         0.864318         0.865972        -5.149788
 H         2.228871         2.095146        -4.989397
 H         3.451645         1.978624        -2.327634
 H         1.891750         2.916560        -2.026009
 H         2.618571         1.694724         0.333568
