19
Iteration:  1179charge 0 multiplicity 1
 C         0.286529        -0.326303         0.357341
 C         1.130889         0.223594        -0.720082
 C         0.469781         0.497087        -2.140692
 C         1.575945         1.186277        -2.931198
 C         1.510158         1.198266        -4.495042
 O         2.356165         0.240377        -3.898248
 C         2.464718         1.942607        -1.989243
 C         2.324502         1.257486        -0.614327
 O         2.546568        -0.257141        -0.618019
 H         0.530981        -0.278107         1.401120
 H        -0.758303         0.092883         0.230752
 H         0.148744        -1.475386         0.176727
 H         0.029444        -0.286527        -2.773985
 H        -0.320636         1.297501        -2.046608
 H         0.603036         0.751775        -4.907508
 H         1.941977         2.019677        -5.072314
 H         3.464544         1.957844        -2.367675
 H         2.310405         3.006959        -1.944151
 H         2.312607         1.747879         0.350813
