19
Iteration:  4450
 C         0.194313        -0.233801         0.430605
 C         1.153553         0.243577        -0.677580
 C         0.607366         0.088132        -2.177239
 C         1.651897         0.973234        -2.974668
 C         1.467484         1.405751        -4.388582
 O         2.360537         0.321969        -4.087958
 C         2.387744         1.937186        -1.943189
 C         2.231555         1.261536        -0.607126
 O         2.562279        -0.129068        -0.608602
 H         0.520131        -1.261688         0.692682
 H         0.398686         0.413480         1.351942
 H        -0.810500        -0.154303         0.157964
 H         0.614552        -0.803557        -2.694434
 H        -0.340931         0.549044        -2.281849
 H         0.736071         1.100585        -5.063644
 H         1.859769         2.299555        -4.759355
 H         3.446584         2.233829        -2.190969
 H         1.844344         2.893882        -1.898997
 H         2.492890         1.850902         0.266536
