19
Iteration:  3524
 C         0.103199        -0.243364         0.410298
 C         1.155213         0.275300        -0.709009
 C         0.692585         0.065373        -2.115252
 C         1.604424         0.921868        -3.026479
 C         1.539731         1.603096        -4.294700
 O         2.252043         0.373772        -4.143616
 C         2.557424         1.705125        -2.114567
 C         2.185949         1.337549        -0.653256
 O         2.507321        -0.132421        -0.427768
 H         0.487082        -1.414452         0.421283
 H         0.220856         0.148059         1.383500
 H        -0.889988         0.034354         0.158104
 H         0.779757        -0.986745        -2.341022
 H        -0.327071         0.261989        -2.219366
 H         0.708961         1.389729        -4.966978
 H         2.065666         2.578844        -4.425119
 H         3.618801         1.654484        -2.398016
 H         2.319022         2.823783        -2.193551
 H         2.649818         1.989748         0.142432
