19
Iteration:  1636charge 0 multiplicity 1
 C         0.048034         0.147348         0.424299
 C         1.050701         0.176978        -0.747032
 C         0.943604        -0.233682        -2.243696
 C         1.812109         0.760038        -2.996983
 C         1.198814         1.643598        -4.069750
 O         2.213465         0.593468        -4.333139
 C         2.764856         1.578703        -1.987362
 C         2.105845         1.294718        -0.703195
 O         2.515205        -0.153489        -0.402947
 H         0.565976        -0.014247         1.330130
 H        -0.312648         1.202579         0.576523
 H        -0.687528        -0.695617         0.102497
 H         1.262740        -1.324845        -2.441405
 H        -0.113394        -0.215130        -2.641463
 H         0.185350         1.450737        -4.495204
 H         1.591810         2.643088        -4.200761
 H         3.880743         1.375638        -2.049896
 H         2.639104         2.665276        -2.392182
 H         2.089891         1.781418         0.251498
