19
Iteration:  4548
 C         0.054322        -0.133150         0.171072
 C         1.216163         0.285102        -0.734665
 C         0.911846        -0.053943        -2.154378
 C         1.638887         0.996286        -2.920524
 C         1.246752         1.469032        -4.313340
 O         2.223747         0.418757        -4.113968
 C         2.559406         1.795225        -1.981766
 C         2.249200         1.262138        -0.664322
 O         2.594204        -0.117017        -0.347052
 H        -0.444812        -0.954831        -0.394723
 H         0.324776        -0.700844         1.099261
 H        -0.632125         0.611821         0.371727
 H         1.139793        -1.066989        -2.420312
 H        -0.156884        -0.128687        -2.304354
 H         0.353103         0.969371        -4.657376
 H         1.616733         2.470528        -4.619483
 H         3.591124         2.086952        -2.341623
 H         2.122876         2.825222        -2.039612
 H         2.334919         1.936029         0.247450
