19
Iteration:   328charge 0 multiplicity 1
 C        -0.164421         0.457292        -0.166505
 C         1.184223         0.132746        -0.749118
 C         1.199854        -0.441533        -2.234566
 C         1.889392         0.726574        -2.990489
 C         0.979699         1.769739        -3.604173
 O         1.904261         0.940333        -4.381615
 C         3.055915         1.185310        -2.129079
 C         2.393867         1.133448        -0.723509
 O         2.359804        -0.163738        -0.094214
 H        -0.549633        -0.537543         0.231464
 H        -0.108379         1.106980         0.845735
 H        -0.792837         0.823564        -0.873315
 H         1.845599        -1.315508        -2.358942
 H         0.167771        -0.735491        -2.600053
 H        -0.062750         1.539923        -3.781809
 H         1.267712         2.789385        -3.620183
 H         3.932904         0.506766        -2.206326
 H         3.181609         2.215190        -2.512638
 H         2.271664         1.947987         0.046332
