19
Iteration:  2413charge 0 multiplicity 1
 C         0.313603        -0.486804         0.437822
 C         1.119137         0.293701        -0.726547
 C         0.515222         0.418121        -2.126178
 C         1.615546         1.135907        -3.018935
 C         1.557551         1.266329        -4.493100
 O         2.399151         0.171836        -3.766616
 C         2.378927         1.952731        -2.023903
 C         2.206381         1.309341        -0.727481
 O         2.496924        -0.103084        -0.637336
 H        -0.696347        -0.400288         0.187469
 H         0.482346        -1.623275         0.345126
 H         0.565552         0.071480         1.515646
 H         0.230161        -0.457882        -2.693632
 H        -0.272146         1.256827        -1.955953
 H         0.684460         0.921186        -5.046188
 H         2.038545         2.045783        -5.122674
 H         3.430283         1.911836        -2.271659
 H         2.058241         3.008109        -2.161660
 H         2.516557         1.812000         0.196655
