19
Iteration:  1372
 C         0.059275         0.061412         0.400393
 C         1.155816         0.192591        -0.595220
 C         0.861545        -0.110035        -2.240263
 C         1.739464         0.956577        -3.053246
 C         1.212290         1.627850        -4.284046
 O         2.274959         0.686224        -4.393641
 C         2.690390         1.400525        -2.061471
 C         2.159763         1.199411        -0.777672
 O         2.518956        -0.136805        -0.120460
 H         0.361162         0.553099         1.288329
 H        -0.991631         0.327818         0.163465
 H        -0.061117        -1.046672         0.669837
 H         1.107753        -1.188394        -2.314178
 H        -0.245906        -0.204953        -2.418273
 H         0.265079         1.243365        -4.754437
 H         1.355372         2.700757        -4.416710
 H         3.697946         0.904510        -2.095176
 H         3.157903         2.412785        -2.204904
 H         1.961044         1.898514         0.027656
