19
Iteration:  3125
 C         0.190477        -0.112994         0.450442
 C         1.086649         0.149681        -0.776745
 C         0.738653         0.019398        -2.211179
 C         1.675230         0.907524        -3.005771
 C         1.430872         1.618988        -4.291276
 O         2.250313         0.398901        -4.190126
 C         2.603331         1.775157        -1.988098
 C         2.111046         1.251759        -0.687979
 O         2.532518        -0.144139        -0.397123
 H         0.359562        -1.196167         0.819216
 H         0.612950         0.648772         1.139616
 H        -0.845777         0.103935         0.368380
 H         0.798347        -1.106479        -2.337707
 H        -0.369783         0.209241        -2.390449
 H         0.477787         1.388190        -4.794440
 H         1.938766         2.549590        -4.582971
 H         3.582251         1.518561        -2.347333
 H         2.667854         2.794671        -2.172101
 H         2.065452         2.017135         0.201938
