19
Iteration:  1905
 C         0.330321        -0.200746         0.486616
 C         1.111623         0.238225        -0.751253
 C         0.494027         0.254037        -2.185319
 C         1.617879         1.057281        -2.953683
 C         1.577524         1.388296        -4.389250
 O         2.356512         0.256763        -3.879415
 C         2.453392         1.913775        -1.982596
 C         2.185379         1.224227        -0.640544
 O         2.474880        -0.185545        -0.778889
 H         0.467605        -1.382570         0.559477
 H         0.551655         0.367597         1.430380
 H        -0.673465        -0.019190         0.287862
 H         0.468289        -0.825928        -2.337537
 H        -0.505623         0.682839        -2.366194
 H         0.688062         1.192468        -5.061234
 H         2.271552         2.174177        -4.684005
 H         3.513280         1.941509        -2.319793
 H         1.979509         2.898818        -1.926788
 H         2.543532         1.646480         0.322877
