19
Iteration:  1327
 C         0.034067        -0.022416         0.233986
 C         1.113696         0.342456        -0.722915
 C         0.907381        -0.085990        -2.173547
 C         1.785187         0.915718        -2.937187
 C         1.312754         1.590327        -4.061244
 O         2.098177         0.410139        -4.242116
 C         2.755296         1.637329        -2.028868
 C         2.204408         1.278474        -0.671821
 O         2.495892        -0.156585        -0.419542
 H         0.206833         0.286689         1.313502
 H        -1.027959         0.163116         0.016338
 H         0.024075        -1.127996         0.052470
 H         1.017444        -1.121348        -2.521930
 H        -0.153882        -0.098556        -2.483301
 H         0.186074         1.595370        -4.284962
 H         1.834558         2.443318        -4.495892
 H         3.861680         1.522733        -2.219670
 H         2.751575         2.712064        -2.209522
 H         2.288130         2.018502         0.142611
