19
Iteration:   694
 C         0.149326         0.103905         0.377347
 C         1.127044         0.140820        -0.727117
 C         0.743878        -0.002164        -2.241296
 C         1.730837         0.986576        -2.972108
 C         1.341736         1.619914        -4.321157
 O         2.252298         0.508486        -4.221033
 C         2.621644         1.647742        -2.018101
 C         2.247767         1.092087        -0.631143
 O         2.444781        -0.289993        -0.362174
 H        -0.542524         0.935489         0.340786
 H        -0.353531        -0.832951         0.492989
 H         0.707561         0.232876         1.402868
 H         0.925747        -1.060022        -2.557316
 H        -0.297801         0.320398        -2.430714
 H         0.388491         1.554007        -4.836569
 H         1.885874         2.510963        -4.520900
 H         3.745644         1.633680        -2.219297
 H         2.388967         2.677449        -1.780806
 H         2.299038         1.777133         0.222651
