19
Iteration:  4524
 C         0.036571        -0.114852         0.346129
 C         1.197703         0.142520        -0.665463
 C         0.878171        -0.013287        -2.181722
 C         1.742020         0.920859        -3.007070
 C         1.264322         1.439819        -4.312865
 O         2.342834         0.448918        -4.277936
 C         2.449556         1.877281        -1.983881
 C         2.176730         1.272956        -0.578479
 O         2.599166        -0.146131        -0.386751
 H        -0.654653        -0.789250        -0.006280
 H         0.355587        -0.498150         1.338291
 H        -0.400644         0.863708         0.422895
 H         0.913683        -1.085978        -2.492052
 H        -0.196163         0.236560        -2.361521
 H         0.280615         1.139169        -4.655810
 H         1.518412         2.488521        -4.517273
 H         3.445726         2.065679        -2.310456
 H         2.020290         2.916374        -2.151689
 H         2.564599         1.832048         0.350872
