19
Iteration:   382
 C        -0.126299         0.338318        -0.012594
 C         1.109797         0.190341        -0.719992
 C         1.179432        -0.303350        -2.184901
 C         1.787931         0.890458        -2.917861
 C         1.082964         1.766108        -3.888764
 O         1.932916         0.751614        -4.408963
 C         2.984519         1.363485        -2.060909
 C         2.385410         1.037245        -0.736441
 O         2.398473        -0.240364        -0.135905
 H        -0.989101        -0.229315        -0.402572
 H         0.129348         0.257131         1.181176
 H        -0.389897         1.312764        -0.215759
 H         1.792430        -1.188975        -2.369792
 H         0.143203        -0.606312        -2.528358
 H        -0.027590         1.640575        -4.001977
 H         1.364256         2.801686        -4.017853
 H         3.830690         0.654165        -2.135348
 H         3.345531         2.405086        -2.297985
 H         2.492128         1.704780         0.149240
