19
Iteration:  4526
 C         0.032844        -0.120572         0.308804
 C         1.186862         0.129122        -0.653862
 C         0.874979        -0.017956        -2.176632
 C         1.748674         0.914760        -2.981275
 C         1.242034         1.448759        -4.329362
 O         2.338503         0.439287        -4.275337
 C         2.438533         1.894249        -1.995747
 C         2.219551         1.288013        -0.572269
 O         2.599119        -0.138665        -0.377953
 H        -0.747700        -0.817883        -0.008778
 H         0.319713        -0.505520         1.330939
 H        -0.385218         0.813097         0.431325
 H         0.886317        -1.006656        -2.505082
 H        -0.145700         0.137411        -2.388194
 H         0.248903         1.171230        -4.607359
 H         1.628789         2.444566        -4.487347
 H         3.489243         2.049813        -2.399510
 H         2.074736         2.958239        -2.088786
 H         2.566862         1.826729         0.361345
