19
Iteration:  4299charge 0 multiplicity 1
 C         0.296267        -0.165050         0.416785
 C         1.118044         0.267207        -0.793038
 C         0.615449         0.135721        -2.175479
 C         1.463863         1.107254        -2.911424
 C         1.509659         1.314150        -4.313343
 O         2.464644         0.356692        -3.803699
 C         2.351311         1.985680        -2.000615
 C         2.240206         1.180519        -0.734167
 O         2.535107        -0.227121        -0.750374
 H        -0.548366        -0.690559        -0.084519
 H         0.847457        -0.777507         1.236589
 H        -0.158906         0.661697         0.815420
 H         0.682539        -0.843290        -2.569470
 H        -0.506336         0.526874        -2.348174
 H         0.836268         0.743055        -4.963908
 H         2.017874         2.223612        -4.646501
 H         3.384833         2.081472        -2.486990
 H         1.786354         2.867142        -1.810217
 H         2.379711         1.548671         0.243341
