19
Iteration:   568charge 0 multiplicity 1
 C         0.351616        -0.292463         0.351880
 C         1.059780         0.363528        -0.790302
 C         0.380149         0.646275        -2.083388
 C         1.564869         1.163457        -2.910558
 C         1.713706         1.277104        -4.372678
 O         2.310436         0.191212        -3.564585
 C         2.481867         1.932981        -1.922667
 C         2.378110         1.033585        -0.682838
 O         2.369380        -0.300323        -1.100961
 H        -0.413267        -1.066741         0.156121
 H         1.160998        -0.747880         1.105875
 H        -0.081082         0.422710         0.955341
 H        -0.113879        -0.251578        -2.464782
 H        -0.472809         1.363184        -1.922674
 H         0.910553         1.082555        -5.115564
 H         2.620777         1.759554        -4.843867
 H         3.402109         1.892764        -2.448130
 H         1.846390         2.859534        -1.692574
 H         2.944647         1.253019         0.224972
