19
Iteration:  1388
 C         0.046735         0.102268         0.347148
 C         1.131496         0.133397        -0.741798
 C         0.880673        -0.204237        -2.173902
 C         1.671640         0.841127        -3.032657
 C         1.128638         1.613931        -4.226748
 O         2.319737         0.741364        -4.354956
 C         2.750358         1.446151        -2.102372
 C         2.244964         1.224485        -0.629662
 O         2.468371        -0.112857        -0.162650
 H         0.375051         0.683039         1.311031
 H        -0.801257         0.559941        -0.169009
 H        -0.248144        -0.926800         0.674860
 H         1.253927        -1.186000        -2.493672
 H        -0.190094        -0.027800        -2.337414
 H         0.236949         1.245008        -4.715335
 H         1.380603         2.671025        -4.386043
 H         3.633301         0.825692        -2.310148
 H         2.976291         2.510275        -2.347637
 H         2.369585         2.031230         0.160514
