19
Iteration:   697charge 0 multiplicity 1
 C         0.132162         0.136501         0.384628
 C         1.137094         0.124533        -0.717668
 C         0.745930        -0.009321        -2.283607
 C         1.739660         0.970161        -2.997385
 C         1.309313         1.634266        -4.314422
 O         2.255984         0.502404        -4.206439
 C         2.626533         1.652094        -2.023930
 C         2.253500         1.084316        -0.620940
 O         2.457461        -0.289812        -0.341474
 H        -0.553768         0.933567         0.397708
 H        -0.474368        -0.888705         0.384135
 H         0.688806         0.196268         1.412433
 H         1.010050        -1.031198        -2.515982
 H        -0.302651         0.250477        -2.455445
 H         0.331383         1.601040        -4.851023
 H         1.892709         2.601271        -4.468253
 H         3.659845         1.665467        -2.253337
 H         2.490091         2.756900        -1.891094
 H         2.360564         1.713865         0.267975
