19
Iteration:  4444charge 0 multiplicity 1
 C         0.202430        -0.238663         0.428908
 C         1.202048         0.222627        -0.697175
 C         0.603304         0.180248        -2.206235
 C         1.655987         0.956971        -2.982261
 C         1.463962         1.376307        -4.371283
 O         2.349539         0.291302        -4.093067
 C         2.367726         1.952308        -1.902574
 C         2.242519         1.302492        -0.611094
 O         2.573194        -0.146287        -0.593504
 H         0.534047        -1.306423         0.581751
 H         0.284575         0.340187         1.333472
 H        -0.881226        -0.290988         0.042566
 H         0.622888        -0.889079        -2.724283
 H        -0.388466         0.800550        -2.279168
 H         0.522832         1.025084        -4.960734
 H         2.100192         2.331314        -4.606560
 H         3.358635         2.207561        -2.299899
 H         1.663592         2.810526        -1.888364
 H         2.420777         1.939433         0.269404
