19
Iteration:  3526
 C         0.104431        -0.244290         0.405570
 C         1.163488         0.260293        -0.703862
 C         0.705557         0.054858        -2.084797
 C         1.592562         0.920037        -3.023664
 C         1.552670         1.620617        -4.301094
 O         2.251549         0.361918        -4.161526
 C         2.548015         1.705899        -2.105243
 C         2.194477         1.331839        -0.647919
 O         2.501792        -0.117886        -0.438444
 H         0.431814        -1.295453         0.384056
 H         0.254153         0.195086         1.423585
 H        -0.973518         0.060529         0.108986
 H         0.795868        -0.968304        -2.347540
 H        -0.341559         0.186558        -2.293702
 H         0.675878         1.417856        -4.912550
 H         2.062714         2.575318        -4.476959
 H         3.575138         1.675166        -2.399595
 H         2.376025         2.803594        -2.099363
 H         2.601808         1.973901         0.128132
