19
Iteration:  3278
 C         0.315573        -0.269848         0.518064
 C         1.065313         0.299254        -0.645404
 C         0.564619         0.205279        -2.155176
 C         1.664040         0.991123        -2.988604
 C         1.517690         1.390577        -4.384997
 O         2.432551         0.349379        -4.023321
 C         2.419879         1.879099        -2.049731
 C         2.131357         1.278435        -0.634048
 O         2.439845        -0.194555        -0.698426
 H         0.581087        -1.328253         0.723095
 H         0.771420         0.379283         1.332221
 H        -0.757461        -0.153803         0.409850
 H         0.619759        -0.879451        -2.495315
 H        -0.431989         0.708526        -2.202362
 H         0.750564         0.999212        -5.046850
 H         1.943796         2.400367        -4.595776
 H         3.431334         1.492134        -2.264388
 H         2.336956         2.985973        -2.033936
 H         2.500453         1.950741         0.178345
