19
Iteration:  3016
 C         0.249319        -0.151518         0.498733
 C         1.087539         0.231339        -0.690471
 C         0.498374         0.183626        -2.162047
 C         1.609907         0.989157        -3.004505
 C         1.567530         1.533991        -4.365703
 O         2.399803         0.309133        -3.982685
 C         2.446703         1.885493        -2.047300
 C         2.245802         1.182938        -0.634712
 O         2.497740        -0.239288        -0.684673
 H         0.767220        -0.744489         1.334921
 H        -0.129791         0.808443         0.920563
 H        -0.574240        -0.954979         0.362919
 H         0.617830        -0.881176        -2.419199
 H        -0.517821         0.560170        -2.129995
 H         0.651774         1.418681        -4.986763
 H         2.191459         2.390251        -4.623970
 H         3.408709         1.767202        -2.597804
 H         1.846244         2.792694        -2.156097
 H         2.767181         1.780332         0.224734
