19
Iteration:  3467
 C         0.197773        -0.145635         0.414880
 C         1.112678         0.193276        -0.760529
 C         0.662702         0.250980        -2.193981
 C         1.725668         1.087349        -3.004017
 C         1.341438         1.298990        -4.378966
 O         2.391090         0.333422        -3.981220
 C         2.509311         1.974991        -1.897269
 C         2.236627         1.180029        -0.614797
 O         2.494209        -0.217853        -0.677442
 H        -0.265151        -1.260534         0.379509
 H         0.564472        -0.036771         1.410812
 H        -0.711694         0.311772         0.283976
 H         0.590193        -0.808289        -2.510401
 H        -0.203767         0.809380        -2.114252
 H         0.474655         0.716108        -4.711621
 H         1.637157         2.172300        -4.969960
 H         3.559292         1.815119        -2.266579
 H         2.182216         3.023170        -1.743364
 H         2.430063         1.648407         0.374853
