19
Iteration:  4239
 C         0.228960        -0.236977         0.327826
 C         1.196785         0.168366        -0.773224
 C         0.679355         0.137658        -2.228747
 C         1.640248         0.997878        -2.968550
 C         1.388397         1.457881        -4.327611
 O         2.340157         0.371168        -4.128456
 C         2.511987         1.801393        -1.992330
 C         2.132231         1.282000        -0.663160
 O         2.554078        -0.141968        -0.358938
 H        -0.086414        -1.276383         0.458069
 H         0.576841         0.025592         1.289728
 H        -0.748706         0.395455         0.136558
 H         0.291860        -0.857118        -2.623271
 H        -0.197164         0.780519        -2.108273
 H         0.460229         1.175168        -4.808290
 H         1.801814         2.361593        -4.798435
 H         3.537788         1.967926        -2.171280
 H         2.210773         2.885629        -2.000819
 H         2.366714         1.890485         0.317743
