19
Iteration:    25charge 0 multiplicity 1
 C         0.249991        -0.259815         0.344115
 C         1.150310         0.247281        -0.810164
 C         0.485651         0.646721        -2.119183
 C         1.659988         1.173910        -2.946346
 C         1.615180         1.333403        -4.370715
 O         2.216620         0.169832        -3.793879
 C         2.488771         1.951380        -1.899269
 C         2.351212         1.053014        -0.633446
 O         2.468424        -0.364185        -0.844080
 H         0.147590        -1.368480         0.251598
 H         0.615633         0.007655         1.242239
 H        -0.865967         0.145860         0.293515
 H        -0.005616        -0.162643        -2.613939
 H        -0.283993         1.381444        -1.832238
 H         0.648592         1.021442        -4.896345
 H         2.200848         2.072145        -4.991434
 H         3.521797         2.209700        -2.239874
 H         2.075136         2.992433        -1.729653
 H         2.821291         1.365296         0.324408
