19
Iteration:  4729charge 0 multiplicity 1
 C         0.299229        -0.214143         0.516286
 C         1.080178         0.183201        -0.677478
 C         0.561852         0.124682        -2.200840
 C         1.620386         1.036281        -3.001302
 C         1.554517         1.499086        -4.479762
 O         2.326646         0.370334        -4.012613
 C         2.455268         1.861145        -1.904197
 C         2.177266         1.202425        -0.613444
 O         2.504352        -0.155655        -0.702694
 H         0.763193         0.181419         1.382676
 H        -0.768545         0.150786         0.473559
 H         0.166499        -1.343811         0.565322
 H         0.697663        -0.869848        -2.567455
 H        -0.403538         0.559743        -2.214918
 H         0.725644         1.193830        -5.108390
 H         2.141469         2.369111        -4.742505
 H         3.491528         1.614113        -2.142467
 H         2.270810         2.971054        -1.832872
 H         2.481513         1.746308         0.338058
