19
Iteration:   611
 C         0.212233        -0.256002         0.363875
 C         1.126206         0.237037        -0.789407
 C         0.466907         0.618554        -2.112253
 C         1.660763         1.181766        -2.989613
 C         1.635028         1.307337        -4.441848
 O         2.205327         0.172267        -3.756134
 C         2.493522         1.886617        -1.931180
 C         2.341311         1.063977        -0.603933
 O         2.517278        -0.259671        -0.842205
 H        -0.727452        -0.690362         0.087214
 H         0.783608        -1.264343         0.663272
 H         0.259727         0.411702         1.205676
 H        -0.065568        -0.145068        -2.677123
 H        -0.281622         1.406499        -1.871974
 H         0.644495         1.040877        -4.898532
 H         2.272194         2.067232        -5.018858
 H         3.513908         2.079367        -2.178955
 H         1.970763         2.896969        -1.670435
 H         2.685173         1.434702         0.365448
