19
Iteration:  4809charge 0 multiplicity 1
 C         0.254101        -0.377874         0.357116
 C         1.151064         0.269725        -0.761246
 C         0.549480         0.369612        -2.160328
 C         1.593619         1.149506        -2.877571
 C         1.433474         1.167869        -4.381958
 O         2.429624         0.388321        -3.790278
 C         2.521405         2.029201        -1.990283
 C         2.273863         1.141676        -0.654370
 O         2.459011        -0.244423        -0.798908
 H         0.179068         0.440538         1.201954
 H        -0.738783        -0.328506        -0.108768
 H         0.579678        -1.310976         0.779681
 H         0.070232        -0.485261        -2.678812
 H        -0.275217         1.059669        -1.962342
 H         0.583676         0.767431        -4.924399
 H         1.817329         2.012332        -4.952851
 H         3.427563         2.276073        -2.475429
 H         2.006058         2.998876        -1.756959
 H         2.664414         1.586403         0.312758
