19
Iteration:  2092
 C        -0.062569        -0.053464         0.318089
 C         1.120580         0.236819        -0.621240
 C         0.944850        -0.127558        -2.134436
 C         1.725666         0.956158        -2.980526
 C         1.186664         1.414351        -4.292550
 O         2.303080         0.516858        -4.251955
 C         2.647128         1.764274        -2.045397
 C         2.211186         1.263791        -0.637542
 O         2.580210        -0.102620        -0.409041
 H        -0.489859         0.958005         0.492865
 H        -0.925302        -0.761493        -0.099372
 H         0.150655        -0.409807         1.233510
 H         1.471983        -1.127556        -2.405910
 H        -0.131605        -0.426598        -2.395426
 H         0.307799         1.147712        -4.920303
 H         1.538437         2.499908        -4.428507
 H         3.805058         1.688911        -2.049300
 H         2.409394         2.883175        -2.048215
 H         2.304009         1.792454         0.301191
