19
Iteration:  2368
 C         0.300845        -0.380910         0.388963
 C         1.168417         0.276862        -0.688253
 C         0.518942         0.415480        -2.233303
 C         1.649536         1.031248        -2.935325
 C         1.582197         1.235070        -4.403174
 O         2.344705         0.142820        -3.711723
 C         2.354489         2.069563        -1.988007
 C         2.139805         1.288276        -0.623225
 O         2.532894        -0.111435        -0.875389
 H        -0.650222         0.085034         0.438661
 H         0.177897        -1.511950         0.080876
 H         0.839567        -0.223589         1.439880
 H         0.436230        -0.665317        -2.485407
 H        -0.421676         0.985041        -2.153313
 H         0.670756         0.971864        -4.976931
 H         2.255327         1.911107        -4.958748
 H         3.419109         2.173044        -2.208638
 H         1.907826         3.085550        -1.861077
 H         2.602383         1.776855         0.249657
