19
Iteration:   580charge 0 multiplicity 1
 C         0.341217        -0.257909         0.381465
 C         1.140810         0.233154        -0.800636
 C         0.401044         0.686999        -2.099249
 C         1.572485         1.162193        -2.895376
 C         1.741926         1.262552        -4.372853
 O         2.256911         0.123968        -3.591410
 C         2.409945         1.924080        -1.918861
 C         2.366611         1.119086        -0.663392
 O         2.381667        -0.310710        -1.095969
 H        -0.493152        -0.875732        -0.125860
 H         1.043829        -1.044811         0.868616
 H        -0.020404         0.467575         0.980939
 H        -0.096452        -0.118271        -2.663307
 H        -0.243728         1.587808        -1.920050
 H         0.936000         0.929836        -4.994125
 H         2.345676         2.153940        -4.678727
 H         3.441735         2.219787        -2.158672
 H         2.142494         3.023354        -1.774309
 H         2.879392         1.388097         0.270478
