19
Iteration:   420charge 0 multiplicity 1
 C         0.048936         0.204401         0.301982
 C         1.106793         0.125545        -0.769840
 C         0.833442        -0.140134        -2.245504
 C         1.802872         0.841396        -2.982045
 C         1.215221         1.706408        -3.981059
 O         2.169330         0.719355        -4.387556
 C         2.853868         1.413525        -2.092979
 C         2.246947         1.098315        -0.681278
 O         2.407171        -0.187964        -0.244225
 H        -0.611562        -0.680662         0.247927
 H         0.422931         0.155861         1.238277
 H        -0.622943         1.154713         0.179526
 H         1.077479        -1.193450        -2.492885
 H        -0.170292         0.046600        -2.565895
 H         0.204947         1.577196        -4.362959
 H         1.649510         2.722212        -4.025752
 H         3.780741         0.750548        -2.140819
 H         3.090521         2.453688        -2.234903
 H         2.502179         1.840194         0.054947
