19
Iteration:  2524
 C         0.103664        -0.066385         0.370608
 C         1.133778         0.231271        -0.664321
 C         0.794709        -0.030397        -2.158322
 C         1.701899         0.957342        -3.004254
 C         1.252772         1.399625        -4.313988
 O         2.429414         0.414139        -4.118036
 C         2.507936         1.876667        -2.016533
 C         2.222037         1.283721        -0.700522
 O         2.524131        -0.165705        -0.451166
 H        -0.470314         0.793538         0.733889
 H        -0.667725        -0.684657         0.040568
 H         0.538346        -0.593239         1.343913
 H         0.950495        -1.018298        -2.467397
 H        -0.285299         0.143105        -2.422322
 H         0.370367         1.025884        -4.841107
 H         1.579777         2.382678        -4.590020
 H         3.489125         1.791671        -2.493201
 H         2.145300         2.881094        -2.200369
 H         2.351093         1.801708         0.236402
