19
Iteration:  4128
 C         0.008194         0.007492         0.395870
 C         1.155164         0.194731        -0.649507
 C         0.902052        -0.123656        -2.182533
 C         1.642862         0.977656        -3.015684
 C         1.263252         1.516226        -4.348912
 O         2.308901         0.550653        -4.187550
 C         2.557731         1.750466        -2.022701
 C         2.235126         1.194904        -0.664912
 O         2.576007        -0.169342        -0.397936
 H        -0.267295        -1.045321         0.164460
 H         0.175410         0.056524         1.455293
 H        -0.812745         0.642036         0.066021
 H         1.332399        -1.183062        -2.446970
 H        -0.152157        -0.159428        -2.293788
 H         0.341785         1.135216        -4.829105
 H         1.549140         2.553932        -4.595219
 H         3.545824         1.382778        -2.044540
 H         2.465052         2.811560        -2.064556
 H         2.346192         1.817093         0.199727
