19
Iteration:   349charge 0 multiplicity 1
 C        -0.076275         0.404677        -0.204577
 C         1.214167         0.248868        -0.850478
 C         1.204530        -0.345205        -2.254427
 C         1.848750         0.826671        -2.959485
 C         0.947063         1.720634        -3.725158
 O         1.833291         0.835259        -4.452200
 C         3.084542         1.280710        -2.007531
 C         2.376879         1.019045        -0.655986
 O         2.358709        -0.224177         0.003798
 H        -0.695012        -0.507229        -0.151933
 H         0.068611         0.728967         0.984866
 H        -0.494287         1.234938        -0.672479
 H         1.782332        -1.270739        -2.325065
 H         0.157809        -0.458999        -2.673791
 H        -0.126070         1.431284        -3.784773
 H         1.159490         2.780652        -3.724521
 H         3.835978         0.491921        -2.023614
 H         3.446777         2.343148        -2.217902
 H         2.433559         1.908777         0.041476
