19
Iteration:  3932
 C         0.294685        -0.213920         0.512132
 C         1.082158         0.271226        -0.699687
 C         0.608263         0.270607        -2.166557
 C         1.671748         1.037779        -2.986288
 C         1.452390         1.367155        -4.384870
 O         2.452382         0.328982        -4.063115
 C         2.390377         1.885505        -1.956739
 C         2.177213         1.198400        -0.596892
 O         2.489098        -0.225443        -0.709299
 H         0.223536        -1.299307         0.806307
 H         0.552106         0.455493         1.416330
 H        -0.724564        -0.061805         0.238795
 H         0.462719        -0.768230        -2.417170
 H        -0.371074         0.653706        -2.495046
 H         0.550780         0.946327        -4.830310
 H         1.818513         2.301795        -4.818518
 H         3.460083         2.035140        -2.025030
 H         2.051282         2.951027        -2.043784
 H         2.645456         1.644263         0.250734
