19
Iteration:   956
 C         0.057581         0.009878         0.325119
 C         1.033190         0.317928        -0.779404
 C         0.911361        -0.159313        -2.192010
 C         1.852146         0.892530        -2.966376
 C         1.233214         1.631717        -4.159979
 O         2.098426         0.566832        -4.325521
 C         2.881040         1.517667        -2.030575
 C         2.261934         1.280348        -0.629935
 O         2.334811        -0.129343        -0.325915
 H         0.363865         0.476395         1.332370
 H        -0.956153        -0.037584         0.081784
 H         0.231151        -1.171450         0.411166
 H         1.447273        -1.121372        -2.253101
 H        -0.150084        -0.168193        -2.470520
 H         0.340937         1.452845        -4.665552
 H         1.647728         2.618211        -4.333004
 H         3.825293         0.951783        -1.949082
 H         2.862241         2.499879        -2.380010
 H         2.526991         1.941586         0.226088
