19
Iteration:   552charge 0 multiplicity 1
 C         0.375623        -0.266606         0.463231
 C         1.016563         0.338602        -0.735734
 C         0.343441         0.623362        -2.097777
 C         1.568502         1.249314        -2.891311
 C         1.742438         1.259471        -4.366622
 O         2.343295         0.194005        -3.678770
 C         2.509825         1.979830        -1.944557
 C         2.387152         1.038639        -0.765356
 O         2.326358        -0.407332        -1.033194
 H        -0.032633        -1.200760         0.034527
 H         1.077792        -0.446387         1.197216
 H        -0.650081         0.258865         0.817129
 H         0.111634        -0.337137        -2.599400
 H        -0.507202         1.291509        -2.095678
 H         0.841205         0.945491        -4.936525
 H         2.234288         2.103434        -4.827909
 H         3.583497         2.043083        -2.299157
 H         2.316800         3.002173        -1.647742
 H         2.830195         1.391610         0.186028
