19
Iteration:  4740
 C         0.351278        -0.211651         0.496420
 C         1.093145         0.218027        -0.788971
 C         0.647500         0.220568        -2.212139
 C         1.596287         1.082482        -2.936000
 C         1.594116         1.477702        -4.351403
 O         2.295518         0.318283        -3.951364
 C         2.409723         1.842302        -1.991283
 C         2.138456         1.193459        -0.648010
 O         2.478970        -0.232161        -0.695535
 H         0.724695         0.289868         1.349206
 H        -0.732992         0.108724         0.359252
 H         0.549556        -1.320826         0.731391
 H         0.583549        -0.791419        -2.555350
 H        -0.356082         0.438277        -2.477538
 H         0.739348         1.332555        -5.009696
 H         2.105821         2.399092        -4.618750
 H         3.490495         1.974924        -2.150394
 H         2.027984         2.923700        -2.087287
 H         2.356043         1.706830         0.366174
