19
Iteration:   130
 C         0.226966        -0.130720         0.391373
 C         1.147229         0.217857        -0.741346
 C         0.520890         0.474675        -2.118765
 C         1.641118         1.084442        -2.912374
 C         1.590640         1.465077        -4.345932
 O         2.287490         0.247641        -3.928677
 C         2.466924         1.793814        -1.944932
 C         2.318157         1.111527        -0.636033
 O         2.433302        -0.357535        -0.823778
 H        -0.381189        -0.904369        -0.047724
 H         0.734778        -0.642276         1.425840
 H        -0.250791         0.706252         0.678367
 H         0.272806        -0.349703        -2.835946
 H        -0.308906         1.205605        -1.988983
 H         0.720751         1.191231        -4.840685
 H         2.080784         2.380774        -4.596286
 H         3.516217         1.899457        -2.114108
 H         2.197034         2.883986        -1.818544
 H         2.789059         1.493102         0.250435
