19
Iteration:  4863charge 0 multiplicity 1
 C         0.247604        -0.377184         0.521222
 C         1.142002         0.197032        -0.743628
 C         0.521994         0.360141        -2.132552
 C         1.579273         1.019846        -2.970792
 C         1.657849         1.494974        -4.413571
 O         2.334858         0.222660        -3.913160
 C         2.367577         1.888323        -2.003128
 C         2.151091         1.261999        -0.708855
 O         2.584090        -0.156198        -0.746969
 H         0.720957         0.000960         1.529639
 H        -0.777914         0.045053         0.415420
 H         0.351785        -1.460857         0.609187
 H         0.114554        -0.580368        -2.548258
 H        -0.381943         0.818326        -1.823926
 H         0.915941         1.321934        -5.176782
 H         2.323890         2.327222        -4.671693
 H         3.420508         1.948877        -2.182796
 H         1.891540         2.967533        -2.088618
 H         2.559718         1.720077         0.292190
