19
Iteration:  1246
 C         0.225073         0.077976         0.543201
 C         1.036318         0.222979        -0.699351
 C         0.697843        -0.005994        -2.192327
 C         1.718206         0.892616        -2.988706
 C         1.424184         1.485880        -4.332242
 O         2.396636         0.497747        -4.160255
 C         2.478211         1.773838        -2.005774
 C         2.191540         1.173674        -0.634951
 O         2.455203        -0.258944        -0.629612
 H         0.823646        -0.067243         1.486272
 H        -0.410798         1.000632         0.596265
 H        -0.338843        -0.839929         0.642070
 H         0.894182        -1.069170        -2.333033
 H        -0.342276         0.321204        -2.266322
 H         0.520468         1.081200        -4.781238
 H         1.789986         2.477644        -4.674524
 H         3.540048         1.659190        -2.203855
 H         2.167146         2.799269        -2.072232
 H         2.321623         1.681472         0.338322
