19
Iteration:  4247charge 0 multiplicity 1
 C         0.194887        -0.240669         0.363316
 C         1.126011         0.133770        -0.763295
 C         0.637210         0.180070        -2.170352
 C         1.692458         0.998573        -3.002719
 C         1.393116         1.376497        -4.355078
 O         2.380691         0.373944        -4.177132
 C         2.496574         1.913977        -1.985062
 C         2.178242         1.287338        -0.606988
 O         2.572006        -0.163242        -0.398417
 H        -0.196674        -1.308845         0.356176
 H         0.790644        -0.044391         1.246367
 H        -0.622556         0.472614         0.355417
 H         0.312848        -0.761114        -2.700523
 H        -0.237124         0.772351        -2.183288
 H         0.368742         1.089903        -4.755431
 H         1.699391         2.446246        -4.605217
 H         3.611237         1.768482        -2.087973
 H         2.075543         2.915954        -2.074817
 H         2.192260         1.798477         0.281779
