19
Iteration:  4071charge 0 multiplicity 1
 C         0.047637        -0.088848         0.345994
 C         1.169105         0.089777        -0.667954
 C         0.850293         0.002008        -2.211400
 C         1.749678         0.958649        -2.984274
 C         1.248249         1.440834        -4.254426
 O         2.278837         0.489583        -4.310137
 C         2.624010         1.730411        -2.005442
 C         2.123829         1.233304        -0.611510
 O         2.545953        -0.004366        -0.356943
 H        -0.779239        -0.701233        -0.132256
 H         0.544687        -0.650467         1.239880
 H        -0.410805         0.792254         0.677116
 H         1.012501        -1.085531        -2.633138
 H        -0.201040         0.118810        -2.234467
 H         0.293897         1.094079        -4.786756
 H         1.618697         2.496350        -4.473510
 H         3.718177         1.511207        -1.866745
 H         2.746068         2.767516        -2.264181
 H         2.357977         1.826487         0.196464
