19
Iteration:  4032charge 0 multiplicity 1
 C         0.177749        -0.143465         0.366277
 C         1.082347         0.258065        -0.746765
 C         0.795566        -0.060981        -2.177498
 C         1.643155         0.930910        -2.969869
 C         1.314172         1.494514        -4.339566
 O         2.318699         0.489195        -4.162425
 C         2.621913         1.731666        -2.026863
 C         2.224505         1.266256        -0.684949
 O         2.467061        -0.084145        -0.333896
 H        -0.408063        -0.978497         0.010326
 H         0.650922        -0.550662         1.193472
 H        -0.518998         0.708778         0.693266
 H         1.084570        -1.011681        -2.532401
 H        -0.277683         0.056489        -2.456974
 H         0.430627         1.190683        -4.842291
 H         1.533332         2.509591        -4.536818
 H         3.550947         1.409587        -2.419249
 H         2.439887         2.844791        -2.023920
 H         2.479560         1.942247         0.193156
