19
Iteration:  4833charge 0 multiplicity 1
 C         0.329068        -0.341551         0.349935
 C         1.138109         0.340911        -0.797782
 C         0.520484         0.384364        -2.208107
 C         1.627759         1.134537        -2.927879
 C         1.487760         1.344575        -4.364105
 O         2.395749         0.192902        -3.820369
 C         2.381630         1.989677        -1.877104
 C         2.208921         1.168052        -0.625184
 O         2.510075        -0.219673        -0.795914
 H         0.432086         0.309523         1.285178
 H        -0.700931        -0.404884         0.095329
 H         0.768067        -1.294538         0.578756
 H         0.374456        -0.644677        -2.609774
 H        -0.470854         0.855822        -2.093289
 H         0.480959         1.091952        -4.761301
 H         1.975112         2.031824        -5.060526
 H         3.449882         2.039665        -2.095724
 H         2.012920         2.967649        -1.875100
 H         2.711780         1.545858         0.181967
