19
Iteration:   418charge 0 multiplicity 1
 C         0.043932         0.214766         0.281586
 C         1.107603         0.133523        -0.764436
 C         0.846825        -0.161866        -2.253175
 C         1.794907         0.838285        -2.995072
 C         1.209740         1.719391        -3.963258
 O         2.168160         0.720462        -4.385831
 C         2.832606         1.403689        -2.091985
 C         2.258391         1.094348        -0.678276
 O         2.405136        -0.180666        -0.239636
 H        -0.656485        -0.692270         0.210120
 H         0.402474         0.172657         1.297094
 H        -0.530573         1.128094         0.183313
 H         1.112547        -1.196402        -2.501748
 H        -0.168853         0.064025        -2.571849
 H         0.223958         1.567879        -4.290467
 H         1.641527         2.701834        -4.051411
 H         3.824869         0.804974        -2.106702
 H         3.122860         2.400111        -2.273472
 H         2.569801         1.829812         0.067881
