19
Iteration:  2120charge 0 multiplicity 1
 C         0.106153         0.081496         0.203123
 C         1.164697         0.209822        -0.725509
 C         0.981551        -0.201487        -2.231164
 C         1.734460         0.970713        -2.937941
 C         1.149903         1.382760        -4.257633
 O         2.328168         0.538824        -4.214525
 C         2.526832         1.826284        -1.996641
 C         2.228006         1.206796        -0.643948
 O         2.455817        -0.187983        -0.317178
 H        -0.366043         1.130553         0.307523
 H        -0.617418        -0.627562         0.156830
 H         0.643585        -0.191884         1.251385
 H         1.393223        -1.151900        -2.447049
 H        -0.115125        -0.162761        -2.414725
 H         0.229054         1.077350        -4.741964
 H         1.394230         2.385581        -4.501764
 H         3.573969         1.868162        -2.145558
 H         2.211185         2.852793        -1.807444
 H         2.262950         1.808420         0.307865
