19
Iteration:  2352charge 0 multiplicity 1
 C         0.264085        -0.351580         0.434551
 C         1.097974         0.225226        -0.771103
 C         0.521011         0.300615        -2.073553
 C         1.553657         1.174121        -2.933943
 C         1.661207         1.197120        -4.422276
 O         2.398522         0.218906        -3.770566
 C         2.330255         2.052059        -2.020462
 C         2.303811         1.250468        -0.709580
 O         2.507237        -0.129956        -0.801643
 H        -0.649584         0.334077         0.752682
 H        -0.078700        -1.318364         0.187847
 H         0.839147        -0.471852         1.273192
 H         0.296010        -0.596525        -2.676032
 H        -0.448354         0.817415        -2.146765
 H         0.840706         0.780639        -4.995686
 H         2.183948         2.073279        -4.805098
 H         3.331798         2.325234        -2.422732
 H         1.713985         2.980161        -1.909484
 H         2.549520         1.793225         0.237814
