19
Iteration:  2394charge 0 multiplicity 1
 C         0.375193        -0.431050         0.307420
 C         1.115507         0.295448        -0.778633
 C         0.443970         0.490660        -2.202925
 C         1.602947         1.016821        -2.876642
 C         1.584433         1.140547        -4.365739
 O         2.361887         0.179365        -3.831617
 C         2.451544         2.006669        -1.999303
 C         2.134914         1.282643        -0.594823
 O         2.530746        -0.051894        -0.747997
 H        -0.730113        -0.287826         0.368505
 H         0.655833        -1.395686         0.259156
 H         0.744627         0.024846         1.253869
 H         0.070645        -0.387939        -2.590695
 H        -0.318093         1.116948        -1.798825
 H         0.724842         0.806032        -4.945804
 H         2.177175         1.943233        -4.823719
 H         3.515042         2.052667        -2.279270
 H         1.996081         3.010196        -2.028041
 H         2.230717         1.774941         0.368259
