19
Iteration:   844charge 0 multiplicity 1
 C        -0.095522         0.211637        -0.079046
 C         1.186632         0.209190        -0.820457
 C         1.151164        -0.292989        -2.240544
 C         1.925552         0.770209        -2.944528
 C         1.007313         1.564219        -3.771076
 O         1.944310         0.754407        -4.453026
 C         2.971246         1.305434        -2.035620
 C         2.261834         1.297488        -0.667498
 O         2.428378        -0.044922        -0.065906
 H         0.139745         0.134365         1.107408
 H        -0.576097         1.222033        -0.241215
 H        -0.811283        -0.563185        -0.260775
 H         1.682374        -1.255077        -2.156949
 H         0.167054        -0.439883        -2.691207
 H        -0.048831         1.250617        -3.905636
 H         1.089665         2.632733        -3.855532
 H         3.869134         0.727066        -2.194492
 H         3.295311         2.272955        -2.336123
 H         2.175159         2.214060        -0.071842
