19
Iteration:  4486
 C         0.309661        -0.070226         0.480359
 C         1.082059         0.170267        -0.755996
 C         0.740294        -0.070970        -2.303455
 C         1.567574         1.000324        -2.944336
 C         1.334701         1.426805        -4.340285
 O         2.473668         0.522797        -4.053181
 C         2.479166         1.812877        -2.047816
 C         2.109513         1.311826        -0.638785
 O         2.479591        -0.183221        -0.527180
 H        -0.200062        -1.137767         0.597595
 H         0.877246         0.154077         1.407721
 H        -0.658861         0.568399         0.584437
 H         0.972732        -1.155269        -2.572803
 H        -0.418711         0.065380        -2.433098
 H         0.680344         0.722692        -4.908760
 H         1.572768         2.524858        -4.513050
 H         3.595030         1.561627        -2.065691
 H         2.281584         2.881036        -2.107766
 H         2.421664         1.737054         0.279412
