19
Iteration:   506
 C         0.145255        -0.070902         0.425296
 C         1.119573         0.222926        -0.764993
 C         0.506882         0.487654        -2.159551
 C         1.625690         1.107158        -2.920848
 C         1.512328         1.448972        -4.297020
 O         2.289794         0.256913        -4.075920
 C         2.581510         1.753752        -1.901019
 C         2.337889         1.073870        -0.601042
 O         2.515311        -0.363547        -0.774228
 H         0.248174        -1.229658         0.610407
 H         0.440079         0.481134         1.283092
 H        -0.949298         0.068292         0.174275
 H         0.105357        -0.409619        -2.666089
 H        -0.277310         1.167880        -1.836028
 H         0.670936         1.361571        -4.913115
 H         2.137028         2.281496        -4.571373
 H         3.672572         1.946549        -2.172779
 H         2.304702         2.752248        -1.724757
 H         2.666594         1.311884         0.420937
