19
Iteration:  2523
 C         0.103253        -0.060111         0.376748
 C         1.137899         0.227911        -0.666442
 C         0.788760        -0.022183        -2.157793
 C         1.699220         0.956201        -3.005623
 C         1.251133         1.396822        -4.316084
 O         2.434589         0.416882        -4.114634
 C         2.506820         1.877378        -2.031203
 C         2.221471         1.284965        -0.695727
 O         2.522746        -0.172009        -0.446246
 H        -0.428513         0.768372         0.739520
 H        -0.661958        -0.723119         0.041910
 H         0.525193        -0.598448         1.349568
 H         0.963594        -1.030454        -2.446365
 H        -0.277472         0.146841        -2.482800
 H         0.394783         1.047428        -4.876438
 H         1.563746         2.386551        -4.586386
 H         3.465819         1.781930        -2.502533
 H         2.125380         2.892434        -2.158681
 H         2.368593         1.799576         0.235225
