19
Iteration:  3925
 C         0.346387        -0.222001         0.522648
 C         1.060549         0.258629        -0.738290
 C         0.615498         0.302978        -2.175075
 C         1.710906         0.993780        -2.956729
 C         1.439839         1.355215        -4.332211
 O         2.447190         0.304070        -4.040222
 C         2.386598         1.882915        -1.917319
 C         2.150928         1.222200        -0.678303
 O         2.476756        -0.205480        -0.732432
 H         0.339839        -1.283814         0.632188
 H         0.560883         0.356578         1.333652
 H        -0.755371         0.089937         0.218509
 H         0.538150        -0.671435        -2.645946
 H        -0.437282         0.859629        -2.326743
 H         0.481391         1.036638        -4.735838
 H         1.955040         2.203228        -4.746624
 H         3.488764         2.037437        -2.014780
 H         1.910615         2.908701        -2.010938
 H         2.461508         1.674550         0.339467
