19
Iteration:   518
 C         0.253960        -0.108397         0.433686
 C         1.070312         0.235596        -0.757669
 C         0.419906         0.542571        -2.091932
 C         1.675269         1.109788        -2.917326
 C         1.578793         1.418318        -4.390578
 O         2.322395         0.255738        -3.943557
 C         2.567634         1.864767        -1.867165
 C         2.295747         0.987649        -0.656847
 O         2.483890        -0.387854        -0.855177
 H         0.340586        -1.245750         0.566206
 H         0.525626         0.264133         1.346099
 H        -0.892084         0.148454         0.285672
 H        -0.127507        -0.258790        -2.627555
 H        -0.305138         1.352849        -2.079284
 H         0.605669         1.185680        -4.787723
 H         2.085099         2.240158        -4.874578
 H         3.654392         1.794684        -2.217526
 H         2.122723         2.792401        -1.731872
 H         2.603514         1.542330         0.250451
