19
Iteration:   142charge 0 multiplicity 1
 C         0.199910        -0.058724         0.368492
 C         1.127265         0.265190        -0.729409
 C         0.512566         0.335378        -2.103850
 C         1.618440         1.048953        -2.939165
 C         1.521832         1.482223        -4.354192
 O         2.322527         0.358372        -4.008085
 C         2.579301         1.800583        -1.909220
 C         2.325576         1.063918        -0.619456
 O         2.439734        -0.372304        -0.764094
 H        -0.653329        -0.675746         0.078293
 H         0.842559        -0.592604         1.207029
 H        -0.275220         0.784344         0.775172
 H         0.294202        -0.713682        -2.336826
 H        -0.500070         0.807442        -2.117197
 H         0.699874         1.335759        -4.989858
 H         2.139656         2.290377        -4.651773
 H         3.586313         1.761546        -2.300134
 H         2.196249         2.834664        -1.829768
 H         2.704189         1.451860         0.337756
