19
Iteration:  1473
 C        -0.045171         0.133660         0.141630
 C         1.244864         0.164324        -0.726894
 C         1.091306        -0.229849        -2.192404
 C         1.749741         0.878031        -3.031040
 C         1.048754         1.667170        -4.081694
 O         2.120783         0.671653        -4.336447
 C         2.775215         1.407638        -2.091639
 C         2.276957         1.275445        -0.700498
 O         2.479757        -0.110891        -0.052353
 H         0.041706         0.289274         1.143040
 H        -0.817111         0.873198        -0.164999
 H        -0.559750        -0.987664        -0.057839
 H         1.412620        -1.296772        -2.371347
 H         0.028405        -0.357965        -2.484269
 H         0.084720         1.352471        -4.408730
 H         1.398971         2.696365        -4.234373
 H         3.600166         0.714699        -2.430565
 H         2.935050         2.540289        -2.284815
 H         2.416939         1.977160         0.096761
