19
Iteration:  4984charge 0 multiplicity 1
 C         0.208080        -0.117165         0.473222
 C         1.099184         0.177311        -0.714321
 C         0.743256         0.047290        -2.180705
 C         1.687938         1.034026        -2.998853
 C         1.396962         1.595879        -4.430848
 O         2.313959         0.420490        -4.129005
 C         2.403831         1.829013        -2.028533
 C         2.211327         1.177512        -0.584537
 O         2.560075        -0.263198        -0.493702
 H         0.696381         0.173235         1.472050
 H        -0.652427         0.510473         0.308302
 H        -0.077030        -1.137059         0.413773
 H         0.891864        -1.014078        -2.462437
 H        -0.302248         0.173220        -2.257679
 H         0.573567         1.315671        -5.062455
 H         1.962380         2.442467        -4.735396
 H         3.456304         1.686239        -2.137829
 H         2.056832         2.895860        -1.840166
 H         2.255077         1.827634         0.220325
