19
Iteration:  1560
 C        -0.095480         0.148885         0.124383
 C         1.269275         0.217600        -0.708662
 C         1.038220        -0.164949        -2.223857
 C         1.746559         0.892200        -2.948379
 C         1.139526         1.663539        -4.085480
 O         2.021765         0.572586        -4.362804
 C         2.793001         1.501658        -2.040272
 C         2.281893         1.263704        -0.591471
 O         2.524050        -0.211651        -0.190370
 H        -0.222756         0.854575         0.855162
 H        -0.913693         0.133353        -0.624916
 H        -0.147844        -0.974953         0.593394
 H         1.653751        -1.115654        -2.209101
 H        -0.048655        -0.332392        -2.543764
 H         0.122435         1.489731        -4.451132
 H         1.452273         2.703707        -4.229161
 H         3.762793         1.001535        -2.301005
 H         3.158729         2.540951        -2.381767
 H         2.220039         1.976512         0.216254
