19
Iteration:  4495
 C         0.253228        -0.066749         0.462505
 C         1.092154         0.164927        -0.794586
 C         0.726000        -0.098503        -2.234622
 C         1.659398         0.947486        -3.012243
 C         1.318064         1.396219        -4.331460
 O         2.454329         0.560268        -4.103920
 C         2.489714         1.839665        -1.964542
 C         2.111523         1.208169        -0.616208
 O         2.483419        -0.119851        -0.482928
 H        -0.269913        -1.083597         0.508091
 H         1.035312         0.020371         1.268490
 H        -0.380869         0.789800         0.494805
 H         0.948537        -1.108317        -2.454811
 H        -0.288981         0.203760        -2.427371
 H         0.412228         1.048301        -4.823921
 H         1.476396         2.410022        -4.650942
 H         3.548694         1.644226        -2.360511
 H         2.263048         2.876279        -2.154568
 H         2.302426         1.780898         0.266745
