19
Iteration:  2856charge 0 multiplicity 1
 C         0.295663        -0.192086         0.546740
 C         1.061722         0.210286        -0.695609
 C         0.574938         0.347555        -2.162491
 C         1.548624         1.058863        -3.007569
 C         1.572798         1.444219        -4.406232
 O         2.382933         0.342336        -3.933478
 C         2.459453         1.846389        -2.009173
 C         2.268824         1.128396        -0.704051
 O         2.450322        -0.286466        -0.689186
 H         0.554664         0.671108         1.300863
 H        -0.797495        -0.230880         0.319253
 H         0.572475        -1.115412         0.845599
 H         0.382607        -0.644625        -2.611775
 H        -0.508416         0.781019        -2.252433
 H         0.792700         1.122789        -5.111861
 H         2.098289         2.342537        -4.722312
 H         3.530364         1.905066        -2.263134
 H         1.975487         2.811481        -2.052796
 H         2.532615         1.651808         0.154289
