19
Iteration:  1137
 C         0.345916        -0.422270         0.331854
 C         1.127908         0.350840        -0.745629
 C         0.400279         0.555764        -2.156300
 C         1.640447         1.067981        -2.852549
 C         1.634030         1.201549        -4.301727
 O         2.300824         0.093493        -3.758240
 C         2.457523         2.056812        -1.920953
 C         2.274448         1.280862        -0.650074
 O         2.429666        -0.157612        -0.974227
 H         0.882256        -0.282603         1.379925
 H        -0.723619        -0.066607         0.499709
 H         0.311792        -1.472114         0.023006
 H         0.215401        -0.492904        -2.422490
 H        -0.585050         1.035853        -2.251429
 H         0.620284         1.023755        -4.751535
 H         2.429186         1.756689        -4.880420
 H         3.491323         2.038497        -2.303598
 H         2.199015         3.122171        -1.947200
 H         2.749860         1.582588         0.298615
