19
Iteration:  1643charge 0 multiplicity 1
 C         0.028159         0.130700         0.373081
 C         1.090886         0.151349        -0.744679
 C         0.896915        -0.231743        -2.287306
 C         1.750813         0.800338        -3.019708
 C         1.215195         1.694394        -4.067986
 O         2.235188         0.518338        -4.287375
 C         2.773628         1.653164        -2.026597
 C         2.136576         1.274555        -0.673857
 O         2.512274        -0.130861        -0.376509
 H         0.764497        -0.304407         1.280484
 H        -0.492556         1.132727         0.621182
 H        -0.653159        -0.608209         0.264106
 H         1.206782        -1.258650        -2.235531
 H        -0.171672        -0.282970        -2.542450
 H         0.337348         1.339180        -4.580355
 H         1.495586         2.783220        -4.142090
 H         3.702493         1.192579        -2.289724
 H         2.699918         2.657800        -2.312663
 H         2.293322         1.799143         0.300330
