19
Iteration:  1611
 C         0.043707         0.140456         0.264152
 C         1.105874         0.183780        -0.759295
 C         0.977417        -0.198153        -2.208323
 C         1.774736         0.863067        -2.990221
 C         1.131778         1.577073        -4.059842
 O         2.216200         0.622928        -4.421913
 C         2.762930         1.569752        -2.016171
 C         2.234976         1.225031        -0.654865
 O         2.419152        -0.161952        -0.240468
 H         0.697644         0.221371         1.262435
 H        -0.569472         1.119116         0.294301
 H        -0.486869        -0.726063         0.184259
 H         1.380657        -1.237533        -2.347051
 H        -0.094463        -0.243583        -2.543379
 H         0.138694         1.201960        -4.322562
 H         1.263626         2.682784        -4.232602
 H         3.741841         1.157100        -2.268802
 H         2.901595         2.627387        -2.201649
 H         2.329613         1.812864         0.246506
