19
Iteration:  4789charge 0 multiplicity 1
 C         0.135915        -0.299746         0.416334
 C         1.181155         0.159788        -0.651972
 C         0.540212         0.463509        -2.041566
 C         1.617369         1.123843        -2.947920
 C         1.505820         1.272958        -4.460873
 O         2.476263         0.359373        -3.879408
 C         2.320671         1.943082        -1.963858
 C         2.268326         1.164904        -0.639169
 O         2.570911        -0.261520        -0.855572
 H         0.197056         0.335746         1.395179
 H        -0.818901        -0.342961        -0.008817
 H         0.651125        -1.136990         0.789675
 H         0.194846        -0.480715        -2.522530
 H        -0.508891         0.854015        -2.052142
 H         0.650136         0.831372        -5.047917
 H         1.782873         2.145440        -5.079246
 H         3.392933         1.946294        -2.265616
 H         2.120405         2.950147        -1.810661
 H         2.608915         1.708257         0.210833
