19
Iteration:   625
 C         0.297490        -0.294383         0.361845
 C         1.139025         0.314639        -0.716907
 C         0.500345         0.558419        -2.176538
 C         1.596134         1.134206        -2.905938
 C         1.536704         1.336709        -4.426646
 O         2.259429         0.214862        -3.874067
 C         2.546118         1.873647        -1.891616
 C         2.322623         1.175183        -0.632020
 O         2.444891        -0.358074        -0.765663
 H        -0.743942        -0.238608        -0.181768
 H         0.576181        -1.242401         0.775630
 H         0.078338         0.374866         1.106935
 H         0.210276        -0.438575        -2.578183
 H        -0.348906         1.287170        -2.108063
 H         0.712420         1.117281        -5.074490
 H         2.222941         2.067571        -4.834825
 H         3.614315         1.860675        -2.271657
 H         2.317893         2.984910        -1.863161
 H         2.676527         1.645891         0.303649
