19
Iteration:  2934
 C         0.262340        -0.401629         0.278157
 C         1.125706         0.362766        -0.703825
 C         0.497522         0.574293        -2.094477
 C         1.604589         1.139160        -2.907045
 C         1.447639         1.182536        -4.434264
 O         2.426692         0.245901        -3.751780
 C         2.464368         1.949256        -1.935167
 C         2.375715         1.186073        -0.631733
 O         2.427080        -0.247413        -0.854808
 H         0.248804         0.242704         1.178780
 H        -0.775087        -0.505649        -0.082156
 H         0.698804        -1.369413         0.446723
 H         0.250051        -0.466247        -2.435425
 H        -0.451261         1.142584        -1.835246
 H         0.657379         0.671297        -4.988692
 H         1.876768         2.009589        -5.028776
 H         3.455125         2.046051        -2.334339
 H         2.208474         2.946153        -1.989061
 H         2.687949         1.715154         0.299197
