19
Iteration:  3588
 C         0.082859         0.040056         0.301070
 C         1.122695         0.219425        -0.709409
 C         0.771635        -0.009882        -2.234818
 C         1.693039         0.913534        -2.938964
 C         1.220961         1.337387        -4.277372
 O         2.399990         0.608825        -4.186971
 C         2.611076         1.807923        -2.007930
 C         2.231858         1.218758        -0.611701
 O         2.530610        -0.260149        -0.410853
 H        -0.481368        -0.989188         0.273631
 H         0.531271        -0.012168         1.225002
 H        -0.645485         0.781741         0.317579
 H         0.927738        -1.104024        -2.465301
 H        -0.210125         0.377857        -2.485465
 H         0.407203         0.715627        -4.669009
 H         1.169184         2.418536        -4.541213
 H         3.658425         1.580189        -2.334667
 H         2.331867         2.903812        -1.990845
 H         2.470167         1.745176         0.367148
