19
Iteration:   947
 C        -0.006647         0.025262         0.316140
 C         1.078021         0.334352        -0.773275
 C         0.981105        -0.179109        -2.192896
 C         1.830453         0.848182        -3.024629
 C         1.113785         1.672481        -4.117836
 O         2.186150         0.589858        -4.308929
 C         2.876623         1.545513        -2.086195
 C         2.248554         1.194833        -0.652481
 O         2.377398        -0.149916        -0.265422
 H         0.160266         0.654112         1.126132
 H        -1.047345         0.252320         0.059014
 H         0.161045        -1.117704         0.650642
 H         1.189472        -1.269176        -2.233090
 H        -0.086314        -0.149155        -2.513896
 H         0.117147         1.485711        -4.504674
 H         1.557008         2.659185        -4.212719
 H         3.795697         0.898823        -2.122274
 H         3.220683         2.569105        -2.400772
 H         2.296851         2.006695         0.096113
