19
Iteration:  2534
 C         0.063065        -0.071853         0.338836
 C         1.142371         0.242695        -0.735385
 C         0.833542        -0.064797        -2.158708
 C         1.713601         0.928577        -2.943498
 C         1.312348         1.396083        -4.291678
 O         2.326922         0.414860        -4.157344
 C         2.533142         1.832896        -2.004185
 C         2.190362         1.254384        -0.628653
 O         2.540187        -0.074969        -0.506242
 H        -0.363876         0.838651         0.600978
 H        -0.649011        -0.723160        -0.102063
 H         0.659221        -0.537678         1.267257
 H         0.972635        -1.051090        -2.508475
 H        -0.236666         0.221495        -2.027205
 H         0.351080         0.950146        -4.479926
 H         1.615076         2.297369        -4.783556
 H         3.625874         1.829829        -1.966880
 H         2.262850         2.886493        -2.117434
 H         2.282348         1.954784         0.192480
