19
Iteration:  2048charge 0 multiplicity 1
 C         0.181623        -0.152021         0.345261
 C         1.085257         0.170011        -0.794661
 C         0.792786        -0.018054        -2.269640
 C         1.724732         0.903234        -2.962443
 C         1.305182         1.536516        -4.287436
 O         2.266461         0.422566        -4.266557
 C         2.674411         1.695187        -1.963947
 C         2.113805         1.287519        -0.660360
 O         2.525777         0.022036        -0.233778
 H        -0.732659         0.510528         0.376174
 H        -0.225679        -1.285567         0.386296
 H         0.692543        -0.204573         1.208575
 H         0.864152        -1.162492        -2.381711
 H        -0.313944         0.236224        -2.371111
 H         0.341987         1.264552        -4.798604
 H         1.561346         2.637394        -4.546601
 H         3.699526         1.198601        -2.204776
 H         2.711043         2.806225        -2.193282
 H         2.044802         2.142912         0.034088
