19
Iteration:  2151charge 0 multiplicity 1
 C         0.045418         0.047925         0.328055
 C         1.169782         0.151934        -0.677074
 C         0.875251        -0.164190        -2.233701
 C         1.721078         0.931703        -2.995671
 C         1.212668         1.464376        -4.274380
 O         2.384117         0.580016        -4.275265
 C         2.479079         1.692306        -1.999104
 C         2.153611         1.176150        -0.615421
 O         2.593838        -0.113235        -0.337159
 H        -0.665705         0.743409        -0.030243
 H        -0.427590        -0.908479         0.494041
 H         0.457610         0.536059         1.365502
 H         1.114645        -1.169591        -2.512337
 H        -0.152220         0.117008        -2.287077
 H         0.261684         1.166656        -4.765391
 H         1.587421         2.449251        -4.510374
 H         3.529368         1.552779        -1.994260
 H         2.312179         2.773892        -2.105334
 H         2.310144         1.986775         0.133157
