19
Iteration:   177
 C         0.135469         0.120469         0.438442
 C         1.117523         0.155824        -0.714052
 C         0.769808         0.145508        -2.194290
 C         1.700970         1.012727        -2.996866
 C         1.325055         1.609144        -4.242999
 O         2.326151         0.556639        -4.250441
 C         2.651412         1.596109        -1.987672
 C         2.234783         1.084244        -0.646922
 O         2.366000        -0.427349        -0.485085
 H        -0.776545        -0.524639         0.229524
 H         0.587775        -0.282108         1.326576
 H        -0.024600         1.226910         0.698323
 H         1.043726        -0.888649        -2.310457
 H        -0.239213         0.320403        -2.625129
 H         0.363780         1.378140        -4.711384
 H         1.782243         2.511440        -4.542954
 H         3.750768         1.527777        -2.187961
 H         2.539818         2.666998        -1.917604
 H         2.522197         1.618324         0.317863
