19
Iteration:  3915charge 0 multiplicity 1
 C         0.331848        -0.192830         0.439668
 C         1.093538         0.190995        -0.776885
 C         0.574261         0.277854        -2.211135
 C         1.761669         0.969368        -2.900237
 C         1.478606         1.338224        -4.283923
 O         2.385408         0.277663        -3.965744
 C         2.436799         1.945462        -1.959210
 C         2.143035         1.222195        -0.655576
 O         2.455029        -0.155316        -0.764497
 H         0.556234        -1.234218         0.502506
 H         0.817653         0.110754         1.309866
 H        -0.792016         0.033319         0.582059
 H         0.328675        -0.657036        -2.779733
 H        -0.261845         1.017971        -2.076682
 H         0.525485         1.100182        -4.773539
 H         1.931163         2.231202        -4.721482
 H         3.486619         2.081537        -2.304494
 H         1.834715         2.854293        -1.846904
 H         2.142975         1.802166         0.336315
