19
Iteration:  3324charge 0 multiplicity 1
 C         0.209561        -0.291598         0.247970
 C         1.249451         0.238246        -0.775110
 C         0.562472         0.398174        -2.122038
 C         1.592575         1.110027        -2.977432
 C         1.483885         1.265357        -4.374829
 O         2.303524         0.148539        -3.835393
 C         2.386553         2.020478        -1.968813
 C         2.220113         1.267758        -0.620589
 O         2.627019        -0.184705        -0.646596
 H         0.364982        -1.477683         0.145806
 H         0.356816         0.059029         1.321816
 H        -0.705046        -0.212479        -0.149950
 H         0.365471        -0.601764        -2.587324
 H        -0.254526         1.214169        -1.909223
 H         0.524685         1.020849        -4.857441
 H         2.110987         2.024504        -4.845228
 H         3.425695         2.109935        -2.367901
 H         1.840236         2.954646        -1.863970
 H         2.482150         1.700583         0.302818
