19
Iteration:  2913
 C         0.244671        -0.345138         0.387104
 C         1.100235         0.313578        -0.733854
 C         0.486136         0.452714        -2.114852
 C         1.613807         1.093621        -2.874551
 C         1.599920         1.299566        -4.370042
 O         2.306078         0.160392        -3.798834
 C         2.456262         2.019803        -1.972223
 C         2.337218         1.192297        -0.678418
 O         2.479459        -0.211685        -0.877337
 H         0.047465         0.099130         1.347902
 H        -0.720762        -0.582787        -0.079922
 H         0.787836        -1.334382         0.542798
 H         0.215886        -0.488198        -2.662141
 H        -0.298083         1.271781        -2.057176
 H         0.617775         1.069173        -4.789838
 H         2.192962         1.971958        -5.014653
 H         3.457973         2.225261        -2.114947
 H         2.065693         3.009646        -1.975855
 H         2.854009         1.575840         0.287136
