19
Iteration:   770charge 0 multiplicity 1
 C        -0.025011         0.170275         0.127725
 C         1.105060         0.196500        -0.789436
 C         1.085758        -0.225093        -2.232582
 C         1.853290         0.815564        -2.965926
 C         1.097200         1.692298        -3.969239
 O         2.032615         0.685004        -4.393566
 C         2.939959         1.412887        -2.046006
 C         2.228910         1.151757        -0.703678
 O         2.404572        -0.100845        -0.118273
 H        -0.177598         1.065779         0.701742
 H        -0.863254         0.008845        -0.440567
 H        -0.006712        -0.629821         0.917313
 H         1.687854        -1.128949        -2.458861
 H         0.040933        -0.257047        -2.600508
 H         0.086188         1.353501        -4.120124
 H         1.201365         2.713927        -4.232729
 H         3.998722         0.921860        -2.027391
 H         3.217398         2.426938        -2.268880
 H         2.239825         1.934512         0.053831
