19
Iteration:   236
 C        -0.088613         0.215315         0.074382
 C         1.170761         0.243922        -0.724090
 C         1.009696        -0.196971        -2.197733
 C         1.753137         0.892513        -2.922043
 C         1.167017         1.811071        -3.976191
 O         2.019638         0.683238        -4.360803
 C         2.942396         1.365902        -2.054108
 C         2.350762         1.164478        -0.667797
 O         2.388970        -0.293514        -0.230939
 H        -0.284836        -0.836195         0.233995
 H         0.075764         0.626337         1.091339
 H        -1.075103         0.464281        -0.450274
 H         1.431562        -1.228084        -2.315850
 H        -0.007003        -0.214446        -2.564853
 H         0.089659         1.815764        -4.302957
 H         1.703852         2.832683        -4.131861
 H         3.669530         0.548602        -2.109576
 H         3.407967         2.369661        -2.162067
 H         2.628763         1.756436         0.174874
