19
Iteration:  4803charge 0 multiplicity 1
 C         0.216403        -0.347517         0.401306
 C         1.152607         0.213380        -0.733629
 C         0.506143         0.357738        -2.099343
 C         1.586412         1.170992        -2.944981
 C         1.451811         1.205175        -4.413038
 O         2.464991         0.378095        -3.822483
 C         2.471240         2.056896        -1.964204
 C         2.283058         1.173472        -0.675993
 O         2.497067        -0.261512        -0.809357
 H         0.068055         0.360078         1.147328
 H        -0.792986        -0.446046        -0.037484
 H         0.387409        -1.395219         0.759415
 H         0.162594        -0.556405        -2.580503
 H        -0.215030         1.197375        -1.845498
 H         0.560227         0.620837        -4.792272
 H         1.880035         2.039199        -4.995156
 H         3.563353         2.094226        -2.362022
 H         2.074750         3.070554        -1.844940
 H         2.762956         1.507270         0.201183
