19
Iteration:  3246charge 0 multiplicity 1
 C         0.244548        -0.078014         0.488820
 C         1.110648         0.254125        -0.715822
 C         0.623543         0.075644        -2.193687
 C         1.659500         0.962094        -2.998349
 C         1.426149         1.436322        -4.349813
 O         2.448015         0.420344        -4.065311
 C         2.376703         1.843488        -2.013358
 C         2.182763         1.226581        -0.660329
 O         2.532201        -0.259784        -0.566325
 H        -0.148450        -1.141146         0.441212
 H         0.864900         0.224793         1.412733
 H        -0.655832         0.439332         0.551740
 H         0.680045        -1.009673        -2.575824
 H        -0.484232         0.429888        -2.395139
 H         0.602627         1.055684        -4.949495
 H         1.756954         2.461668        -4.625896
 H         3.415097         1.929467        -2.384345
 H         2.198017         2.897546        -1.942038
 H         2.456175         1.815788         0.264668
