19
Iteration:  3600
 C        -0.004295         0.053505         0.354502
 C         1.200682         0.233650        -0.671286
 C         0.774133        -0.035199        -2.099890
 C         1.695908         0.939894        -3.007773
 C         1.179578         1.356280        -4.335964
 O         2.474580         0.648643        -4.210596
 C         2.520211         1.693763        -1.952374
 C         2.329122         1.166166        -0.615703
 O         2.502164        -0.203112        -0.477379
 H        -0.529446        -0.952737        -0.101081
 H         0.376892        -0.093126         1.301849
 H        -0.663680         0.867809         0.342450
 H         0.951623        -1.091618        -2.422845
 H        -0.290182         0.023531        -2.209724
 H         0.378818         0.797467        -4.845807
 H         1.274334         2.423303        -4.657943
 H         3.603581         1.626172        -2.220545
 H         2.386701         2.814298        -2.107157
 H         2.399937         1.884756         0.253689
