19
Iteration:   587
 C         0.325877        -0.301831         0.371403
 C         1.196280         0.232961        -0.799335
 C         0.405911         0.717679        -2.110686
 C         1.598188         1.171154        -2.907129
 C         1.741023         1.237871        -4.305516
 O         2.241660         0.095672        -3.680390
 C         2.434016         2.027203        -1.912862
 C         2.291741         1.117270        -0.720577
 O         2.429087        -0.335740        -1.035676
 H        -0.520341        -0.738208        -0.043667
 H         0.715643        -1.150488         1.048099
 H         0.100939         0.615329         1.063586
 H        -0.193476        -0.009679        -2.650832
 H        -0.260840         1.535633        -1.815409
 H         0.850155         0.902868        -4.937833
 H         2.340242         2.122067        -4.667803
 H         3.492756         2.078267        -2.162920
 H         2.012253         3.049968        -1.656776
 H         2.661037         1.312527         0.272191
