19
Iteration:  3312charge 0 multiplicity 1
 C         0.248242        -0.330268         0.254991
 C         1.154312         0.209852        -0.787532
 C         0.616401         0.384863        -2.194565
 C         1.665643         1.072407        -2.923547
 C         1.488936         1.287079        -4.390467
 O         2.252096         0.169167        -3.885544
 C         2.373489         1.999967        -1.926541
 C         2.269029         1.264511        -0.619911
 O         2.597692        -0.148261        -0.626818
 H         0.455106        -1.401905         0.684577
 H         0.445663         0.339780         1.178972
 H        -0.713002        -0.075459         0.150213
 H         0.197998        -0.540107        -2.715803
 H        -0.415485         0.895757        -2.115722
 H         0.565130         1.000118        -4.908926
 H         2.055135         2.094641        -4.899313
 H         3.478097         2.151174        -2.060522
 H         1.999266         3.034243        -1.968457
 H         2.397435         1.817904         0.287536
