19
Iteration:   615charge 0 multiplicity 1
 C         0.248951        -0.270697         0.361176
 C         1.149408         0.267139        -0.763961
 C         0.486653         0.619627        -2.154336
 C         1.647263         1.156285        -2.983966
 C         1.621493         1.319099        -4.452715
 O         2.198573         0.192278        -3.774957
 C         2.499529         1.882454        -1.912450
 C         2.335738         1.092114        -0.615100
 O         2.501648        -0.277899        -0.818318
 H        -0.827103        -0.599333         0.018125
 H         0.669239        -1.158896         0.722327
 H         0.155075         0.339890         1.254548
 H        -0.031294        -0.236054        -2.664540
 H        -0.321552         1.342983        -1.900722
 H         0.725781         0.981652        -4.899231
 H         2.157991         2.080729        -4.949165
 H         3.607240         1.915170        -2.175743
 H         1.973247         2.794555        -1.662929
 H         2.669596         1.429996         0.385175
