19
Iteration:   530
 C         0.328598        -0.230376         0.469747
 C         1.067284         0.265597        -0.765076
 C         0.478808         0.601384        -2.135905
 C         1.666672         1.125613        -2.941578
 C         1.600748         1.373600        -4.403627
 O         2.324739         0.286028        -3.790837
 C         2.485497         1.870153        -1.946215
 C         2.334376         1.049027        -0.664446
 O         2.349024        -0.407096        -0.909513
 H         0.162688        -1.304976         0.604700
 H         0.795088         0.232404         1.259625
 H        -0.749289         0.308384         0.351093
 H        -0.006190        -0.301161        -2.535406
 H        -0.199394         1.424674        -1.941057
 H         0.685324         1.051027        -4.938230
 H         2.255668         2.055280        -4.943281
 H         3.580379         1.982523        -2.216616
 H         2.316598         2.902776        -1.784239
 H         2.679675         1.233778         0.371158
