19
Iteration:  2864charge 0 multiplicity 1
 C         0.315005        -0.191138         0.536403
 C         1.092077         0.209932        -0.766972
 C         0.426520         0.331616        -2.159324
 C         1.588172         1.086125        -2.990718
 C         1.607578         1.470341        -4.447345
 O         2.391526         0.279330        -3.909468
 C         2.416205         1.857239        -2.028649
 C         2.207071         1.151007        -0.669231
 O         2.525697        -0.303005        -0.685390
 H         0.477885         0.611932         1.322003
 H        -0.768562        -0.246110         0.416560
 H         0.656603        -1.141207         0.963918
 H         0.332497        -0.679992        -2.540758
 H        -0.470045         1.002274        -2.225057
 H         0.667573         1.322716        -4.997135
 H         2.219706         2.300564        -4.827060
 H         3.481897         1.990144        -2.406763
 H         2.257214         2.898018        -1.746933
 H         2.487552         1.647190         0.247633
