19
Iteration:   380charge 0 multiplicity 1
 C        -0.147031         0.332875        -0.016004
 C         1.130063         0.188829        -0.722891
 C         1.197164        -0.307026        -2.194521
 C         1.796922         0.898843        -2.916117
 C         1.071448         1.777901        -3.881576
 O         1.926600         0.745091        -4.411403
 C         2.990153         1.348547        -2.059260
 C         2.389848         1.042208        -0.732254
 O         2.392240        -0.243129        -0.125631
 H        -0.992038        -0.198645        -0.346926
 H         0.091273         0.276239         1.119108
 H        -0.361245         1.395226        -0.277363
 H         1.804432        -1.206495        -2.397173
 H         0.181741        -0.596849        -2.533946
 H        -0.068329         1.597749        -3.913285
 H         1.331350         2.843690        -4.084781
 H         3.771582         0.631101        -2.143167
 H         3.309698         2.437246        -2.278745
 H         2.526057         1.724864         0.106549
