19
Iteration:  4542charge 0 multiplicity 1
 C         0.014350        -0.152373         0.196995
 C         1.237141         0.222812        -0.723985
 C         0.875138        -0.082381        -2.138904
 C         1.657805         0.987458        -2.977234
 C         1.281860         1.445543        -4.250018
 O         2.230453         0.428332        -4.159472
 C         2.520143         1.868371        -2.006719
 C         2.330386         1.250589        -0.623503
 O         2.575108        -0.097132        -0.353212
 H        -0.563891        -0.887522        -0.429930
 H         0.375819        -0.622313         1.096010
 H        -0.668502         0.767866         0.423936
 H         1.308939        -1.097825        -2.399669
 H        -0.230642         0.146801        -2.215291
 H         0.345476         1.114270        -4.771150
 H         1.536787         2.378748        -4.783782
 H         3.589931         1.963968        -2.254320
 H         2.007434         2.831734        -1.962875
 H         2.265221         1.946506         0.169699
