19
Iteration:  3578
 C         0.151266        -0.007165         0.362213
 C         1.122008         0.198499        -0.825255
 C         0.822271         0.001570        -2.217141
 C         1.763531         1.005379        -2.963728
 C         1.191449         1.388616        -4.222700
 O         2.374902         0.517926        -4.157221
 C         2.585881         1.789343        -2.024300
 C         2.181077         1.181371        -0.626483
 O         2.480093        -0.227557        -0.398391
 H        -0.549557        -0.997959         0.231087
 H         0.637757         0.200396         1.261546
 H        -0.555331         0.727208         0.080645
 H         0.835040        -1.053365        -2.571375
 H        -0.204429         0.274565        -2.337718
 H         0.247856         0.960729        -4.594408
 H         1.549445         2.316920        -4.706752
 H         3.688988         1.781858        -2.164074
 H         2.369291         2.912512        -1.997065
 H         2.346573         1.857829         0.280936
