19
Iteration:  1474
 C        -0.047906         0.128339         0.153176
 C         1.247028         0.169293        -0.724776
 C         1.087655        -0.238087        -2.203023
 C         1.746556         0.883693        -3.021651
 C         1.053600         1.662718        -4.080601
 O         2.124443         0.682891        -4.336383
 C         2.779542         1.407109        -2.098061
 C         2.271088         1.265850        -0.715181
 O         2.477250        -0.105238        -0.049708
 H         0.010557         0.294851         1.146307
 H        -0.796210         0.853956        -0.159624
 H        -0.548888        -0.962410        -0.026589
 H         1.418199        -1.299552        -2.348856
 H         0.027958        -0.346841        -2.478398
 H         0.084752         1.340115        -4.428439
 H         1.410294         2.677581        -4.216240
 H         3.582632         0.693945        -2.410461
 H         2.937984         2.516652        -2.326324
 H         2.445042         1.973231         0.098767
