19
Iteration:  4139charge 0 multiplicity 1
 C         0.057107         0.010888         0.340360
 C         1.196563         0.124401        -0.672493
 C         0.821008        -0.081132        -2.121104
 C         1.695709         0.969612        -3.013724
 C         1.187617         1.515400        -4.390469
 O         2.347739         0.584442        -4.188955
 C         2.550676         1.711827        -2.003475
 C         2.138358         1.216958        -0.640552
 O         2.609104        -0.201462        -0.338415
 H        -0.191116        -1.078576         0.529904
 H         0.337011         0.476231         1.266743
 H        -0.901184         0.410345         0.032901
 H         1.123558        -1.126972        -2.544363
 H        -0.089101         0.212385        -2.479127
 H         0.429248         1.106736        -5.081649
 H         1.584257         2.505797        -4.669970
 H         3.534725         1.419653        -2.307876
 H         2.618240         2.782115        -2.083379
 H         2.334366         1.871331         0.181462
