19
Iteration:  3518charge 0 multiplicity 1
 C         0.164071        -0.275643         0.397300
 C         1.114454         0.313990        -0.683324
 C         0.660048         0.094313        -2.211401
 C         1.648605         0.927081        -2.996086
 C         1.473811         1.553496        -4.307378
 O         2.274625         0.397606        -4.099848
 C         2.577387         1.732093        -2.116463
 C         2.198694         1.341076        -0.680354
 O         2.515129        -0.161983        -0.404121
 H         0.318137        -1.276091         0.524589
 H         0.296784         0.124942         1.474854
 H        -0.978696        -0.127827         0.136794
 H         0.739724        -1.004365        -2.393700
 H        -0.424948         0.543646        -2.079452
 H         0.737107         1.420880        -5.105085
 H         2.057328         2.467455        -4.315026
 H         3.638711         1.529673        -2.332487
 H         2.230660         2.707823        -2.418503
 H         2.553060         1.928841         0.128133
