19
Iteration:   829charge 0 multiplicity 1
 C        -0.125923         0.195007         0.004262
 C         1.221447         0.199794        -0.780551
 C         1.192747        -0.455513        -2.208112
 C         1.796675         0.770545        -2.981870
 C         1.038940         1.714603        -3.818401
 O         1.977500         0.756135        -4.392947
 C         3.001126         1.332315        -2.107341
 C         2.268233         1.220603        -0.777335
 O         2.403246         0.044086        -0.030292
 H         0.026582         0.211942         1.036067
 H        -0.850267         1.056648        -0.266807
 H        -0.541470        -0.762619        -0.300551
 H         1.522329        -1.429945        -2.543630
 H         0.118372        -0.444529        -2.441113
 H        -0.037107         1.445188        -4.022175
 H         1.425888         2.784766        -3.867310
 H         3.709495         0.548418        -1.905808
 H         3.484356         2.318330        -2.403472
 H         2.174594         2.073827        -0.092857
