19
Iteration:  3707
 C         0.214826        -0.209160         0.342275
 C         1.061343         0.350715        -0.709313
 C         0.659362         0.149731        -2.171546
 C         1.605764         1.044131        -3.002482
 C         1.319808         1.401470        -4.384554
 O         2.409197         0.410234        -4.054511
 C         2.614178         1.757133        -1.999474
 C         2.255315         1.251192        -0.663040
 O         2.481823        -0.187858        -0.426824
 H         0.607656        -1.217621         0.356251
 H         0.315175         0.112669         1.356721
 H        -0.913863        -0.319185        -0.112105
 H         0.616390        -0.989408        -2.416154
 H        -0.309695         0.674332        -2.323585
 H         0.469736         0.983211        -4.922662
 H         1.670211         2.402744        -4.693374
 H         3.615238         1.419598        -2.347573
 H         2.464738         2.820955        -2.016389
 H         2.293592         1.937229         0.265631
