19
Iteration:  3907
 C         0.332175        -0.232817         0.408135
 C         1.099006         0.187337        -0.850097
 C         0.561094         0.264376        -2.200855
 C         1.683352         1.010637        -2.901304
 C         1.523610         1.357913        -4.301355
 O         2.351866         0.240676        -3.899391
 C         2.449207         1.966424        -1.985766
 C         2.159090         1.255296        -0.619064
 O         2.488715        -0.149738        -0.737933
 H         0.236686        -1.376061         0.472016
 H         1.089799         0.105534         1.228731
 H        -0.722899        -0.033968         0.563389
 H        -0.093757        -0.644690        -2.579125
 H        -0.227603         0.933909        -2.286003
 H         0.605901         0.930592        -4.775947
 H         1.987734         2.307495        -4.687852
 H         3.484737         2.273816        -2.234517
 H         2.032861         2.962809        -2.076061
 H         2.319556         1.689393         0.355838
