19
Iteration:  4575charge 0 multiplicity 1
 C         0.104635        -0.185517         0.334578
 C         1.163106         0.190472        -0.735439
 C         0.892671        -0.044417        -2.202263
 C         1.665408         1.023351        -2.935218
 C         1.246477         1.471219        -4.281799
 O         2.300981         0.459563        -4.233504
 C         2.600919         1.776811        -1.963290
 C         2.183394         1.308756        -0.609763
 O         2.507551        -0.052397        -0.421175
 H        -0.250788        -1.228950         0.238094
 H         0.476908        -0.160412         1.353315
 H        -0.852520         0.516095         0.294898
 H         1.060000        -1.064957        -2.532446
 H        -0.216541        -0.100239        -2.322547
 H         0.381909         0.896672        -4.599736
 H         1.549640         2.410437        -4.745264
 H         3.587464         1.378064        -2.124682
 H         2.796976         2.799409        -2.263652
 H         2.103873         1.882493         0.277419
