19
Iteration:  1592charge 0 multiplicity 1
 C        -0.040974         0.143468         0.209435
 C         1.176929         0.223932        -0.706928
 C         1.024086        -0.167345        -2.264461
 C         1.765809         0.916360        -3.005539
 C         1.065985         1.605950        -4.211886
 O         2.100135         0.659696        -4.266413
 C         2.805522         1.494463        -2.051162
 C         2.363675         1.187015        -0.638201
 O         2.482949        -0.195981        -0.148175
 H         0.046975         0.391471         1.199992
 H        -0.881051         0.736933        -0.217408
 H        -0.264712        -0.983089         0.100724
 H         1.359358        -1.228115        -2.165555
 H        -0.055741        -0.358250        -2.396035
 H         0.152176         1.164283        -4.612941
 H         1.327927         2.629022        -4.492379
 H         3.777431         1.017093        -2.313130
 H         2.811285         2.653152        -2.062329
 H         2.314393         2.038957         0.006845
