19
Iteration:   213charge 0 multiplicity 1
 C        -0.013030         0.173792         0.239139
 C         1.129164         0.174090        -0.723698
 C         0.853521        -0.058690        -2.248974
 C         1.762115         0.883813        -2.959216
 C         1.224065         1.752585        -4.072294
 O         2.153771         0.638650        -4.321189
 C         2.839503         1.442925        -2.021530
 C         2.320718         1.087951        -0.639732
 O         2.454974        -0.316196        -0.295147
 H        -0.809165        -0.569767         0.181359
 H         0.331485         0.324795         1.208992
 H        -0.653835         1.104638        -0.136576
 H         1.203210        -1.091622        -2.468149
 H        -0.184324        -0.014022        -2.592366
 H         0.158015         1.640472        -4.442913
 H         1.672770         2.794279        -4.228447
 H         3.852789         1.085679        -2.309744
 H         2.763195         2.538627        -2.001942
 H         2.382513         1.863595         0.151115
