19
Iteration:  2101charge 0 multiplicity 1
 C        -0.048386         0.020012         0.349298
 C         1.128057         0.247768        -0.708636
 C         1.006360        -0.111956        -2.210776
 C         1.700639         0.924427        -2.971964
 C         1.184136         1.443930        -4.280346
 O         2.316351         0.516564        -4.230388
 C         2.570371         1.775591        -1.987636
 C         2.242537         1.205895        -0.587390
 O         2.567944        -0.152135        -0.406326
 H        -0.692819         1.009775         0.488609
 H        -0.759074        -0.672441        -0.152276
 H         0.186698        -0.454460         1.254990
 H         1.740906        -0.942446        -2.253035
 H        -0.114755        -0.349235        -2.373418
 H         0.249396         0.989768        -4.663742
 H         1.374385         2.428542        -4.740963
 H         3.720917         1.700510        -2.123112
 H         2.207414         2.768405        -2.339458
 H         2.389899         1.945690         0.243363
