19
Iteration:  4755charge 0 multiplicity 1
 C         0.352481        -0.198592         0.402964
 C         1.135681         0.213325        -0.773251
 C         0.503589         0.218477        -2.234149
 C         1.654696         1.024156        -2.906760
 C         1.553986         1.495737        -4.297030
 O         2.351214         0.247572        -3.921559
 C         2.393584         1.991585        -1.966678
 C         2.211251         1.200917        -0.702364
 O         2.449226        -0.276642        -0.702066
 H         0.677054         0.579841         1.206924
 H        -0.728784        -0.322602         0.410529
 H         0.685373        -1.188466         0.572584
 H         0.684645        -0.772505        -2.754050
 H        -0.435940         0.790988        -2.087515
 H         0.608257         1.298439        -4.793272
 H         2.300274         2.253213        -4.539971
 H         3.345108         2.122183        -2.432796
 H         1.840541         2.896261        -1.779203
 H         2.400667         1.770583         0.281070
