19
Iteration:  2200charge 0 multiplicity 1
 C         0.160574        -0.225667         0.317513
 C         1.098419         0.274270        -0.735162
 C         0.832729         0.057889        -2.235870
 C         1.765575         0.976546        -2.965400
 C         1.336171         1.484828        -4.252174
 O         2.225648         0.363280        -4.206127
 C         2.664235         1.731324        -2.022546
 C         2.151355         1.263406        -0.600494
 O         2.416773        -0.022243        -0.380000
 H        -1.043763        -0.322176         0.192151
 H         0.648602        -1.226769         0.657208
 H         0.364119         0.486321         1.064627
 H         1.169523        -1.006062        -2.461312
 H        -0.216198         0.320878        -2.547533
 H         0.398179         1.121003        -4.656654
 H         1.668952         2.516136        -4.499794
 H         3.731420         1.419218        -2.304998
 H         2.578108         2.833418        -2.010262
 H         2.158159         1.975076         0.256607
