19
Iteration:  3486
 C         0.232422        -0.211907         0.389031
 C         1.128500         0.217761        -0.742064
 C         0.677355         0.271147        -2.218652
 C         1.731328         1.087790        -2.931612
 C         1.342336         1.304785        -4.414773
 O         2.358983         0.377604        -4.113842
 C         2.597172         1.796976        -1.895335
 C         2.088239         1.278559        -0.560684
 O         2.507736        -0.198804        -0.574211
 H         0.151106        -1.269487         0.559488
 H         0.704026         0.335474         1.285575
 H        -0.881082         0.093598         0.283803
 H         0.467356        -0.763474        -2.649945
 H        -0.438561         0.746449        -2.113788
 H         0.369097         0.922427        -4.818821
 H         1.629796         2.211280        -4.954152
 H         3.705260         1.636937        -1.955129
 H         2.412758         2.873120        -2.127442
 H         2.299676         1.731111         0.367911
