19
Iteration:   957
 C         0.066816         0.010085         0.327706
 C         1.032140         0.316350        -0.774186
 C         0.906112        -0.152829        -2.193047
 C         1.843664         0.892872        -2.960171
 C         1.249635         1.628529        -4.160119
 O         2.093506         0.563037        -4.329676
 C         2.876825         1.509610        -2.022337
 C         2.261024         1.289762        -0.631995
 O         2.333126        -0.126479        -0.331056
 H         0.356245         0.428495         1.292416
 H        -0.961015        -0.035249         0.079101
 H         0.246506        -1.197512         0.412010
 H         1.464082        -1.104474        -2.260958
 H        -0.156729        -0.170857        -2.496979
 H         0.337149         1.448397        -4.663969
 H         1.651076         2.618519        -4.362268
 H         3.849439         0.973473        -1.962859
 H         2.854457         2.524886        -2.355094
 H         2.534332         1.928017         0.239785
