19
Iteration:  1146
 C         0.347190        -0.402766         0.341100
 C         1.081725         0.367117        -0.739879
 C         0.478533         0.540035        -2.107129
 C         1.625550         1.107796        -2.859017
 C         1.566311         1.162542        -4.278927
 O         2.339643         0.080322        -3.781238
 C         2.514727         2.039155        -1.938132
 C         2.259901         1.255774        -0.633411
 O         2.425377        -0.136898        -0.974097
 H         0.793913        -0.445150         1.340122
 H        -0.762420        -0.115218         0.289972
 H         0.425320        -1.508113        -0.103299
 H         0.272605        -0.353974        -2.709035
 H        -0.279219         1.337766        -2.246128
 H         0.655532         0.888203        -4.830458
 H         1.975859         2.041851        -4.773658
 H         3.490221         1.801009        -2.262044
 H         2.092047         3.010238        -1.975570
 H         2.457305         1.729759         0.324572
