19
Iteration:  3650charge 0 multiplicity 1
 C         0.207039        -0.043269         0.304160
 C         1.125067         0.182910        -0.766242
 C         0.822504        -0.049648        -2.267275
 C         1.751357         0.943951        -2.954799
 C         1.366507         1.556278        -4.279878
 O         2.239273         0.364120        -4.158066
 C         2.535386         1.773409        -1.936798
 C         2.106955         1.219989        -0.600068
 O         2.505698        -0.128465        -0.390532
 H        -0.384673        -0.891539         0.248945
 H         1.018519         0.096219         1.153683
 H        -0.553024         0.966789         0.199315
 H         1.007329        -1.122356        -2.539698
 H        -0.238346         0.146290        -2.582536
 H         0.360568         1.319847        -4.590613
 H         1.776051         2.504556        -4.652730
 H         3.612768         1.892936        -2.208576
 H         2.163215         2.759640        -2.126983
 H         2.189881         1.866903         0.274164
