19
Iteration:    81charge 0 multiplicity 1
 C         0.410264        -0.460614         0.330115
 C         1.106320         0.355534        -0.777748
 C         0.428169         0.796646        -2.170904
 C         1.552134         1.282181        -2.893466
 C         1.700787         1.207486        -4.363146
 O         2.243306         0.133147        -3.574942
 C         2.489706         1.918217        -1.941315
 C         2.345848         1.116331        -0.630302
 O         2.314373        -0.313442        -1.036264
 H         0.616390        -1.543396         0.102099
 H         0.764465        -0.277650         1.264037
 H        -0.777892        -0.083966         0.380149
 H        -0.068852        -0.096316        -2.551422
 H        -0.269293         1.616491        -1.920194
 H         0.698348         1.189196        -5.031978
 H         2.676490         1.641879        -4.779767
 H         3.490734         1.838563        -2.489398
 H         2.500906         3.012785        -1.787042
 H         2.882921         1.311335         0.337216
