19
Iteration:  4171charge 0 multiplicity 1
 C         0.170051        -0.050643         0.352258
 C         1.053873         0.207912        -0.767171
 C         0.767606        -0.008530        -2.263911
 C         1.783058         0.924305        -2.961402
 C         1.239656         1.471547        -4.195837
 O         2.351331         0.503292        -4.250583
 C         2.587096         1.758488        -1.980799
 C         2.164181         1.240109        -0.646065
 O         2.514555        -0.181840        -0.350265
 H         0.614280        -0.991628         0.774072
 H         0.368642         0.602691         1.196930
 H        -0.855052        -0.129489         0.068203
 H         0.811972        -1.104313        -2.642388
 H        -0.206398         0.265902        -2.500022
 H         0.305217         1.137338        -4.734234
 H         1.544191         2.492134        -4.532770
 H         3.624188         1.671957        -2.301172
 H         2.354528         2.824852        -1.937748
 H         2.250396         1.889749         0.161013
