19
Iteration:   423charge 0 multiplicity 1
 C         0.040585         0.193847         0.314015
 C         1.103797         0.127088        -0.772039
 C         0.825667        -0.114474        -2.235177
 C         1.809950         0.845504        -2.965911
 C         1.225213         1.696433        -4.011869
 O         2.169909         0.713961        -4.388699
 C         2.886219         1.415120        -2.083585
 C         2.234951         1.114525        -0.693309
 O         2.413321        -0.210569        -0.252038
 H        -0.569343        -0.670343         0.290325
 H         0.549789         0.152788         1.329841
 H        -0.681725         1.088645         0.187900
 H         1.023623        -1.177206        -2.478965
 H        -0.226633         0.033849        -2.548156
 H         0.173326         1.589175        -4.460227
 H         1.624639         2.744636        -4.002320
 H         3.691750         0.728629        -2.201975
 H         3.052097         2.548962        -2.192584
 H         2.361082         1.891546         0.081847
