19
Iteration:   733
 C         0.009357         0.213139         0.219595
 C         1.133714         0.172844        -0.693238
 C         0.942310        -0.129029        -2.115215
 C         1.751377         0.873664        -2.989808
 C         1.170439         1.584082        -4.180498
 O         2.174684         0.668471        -4.293822
 C         2.818640         1.563600        -1.962069
 C         2.284335         1.118288        -0.643069
 O         2.438870        -0.224585        -0.367345
 H        -0.472435         1.272396         0.435021
 H        -0.766510        -0.345443        -0.447218
 H         0.177688        -0.413772         1.014981
 H         1.293938        -1.166949        -2.221920
 H        -0.076103        -0.301254        -2.450057
 H         0.125082         1.328655        -4.484648
 H         1.548885         2.638288        -4.278047
 H         3.742470         1.112144        -2.246124
 H         2.590273         2.622237        -2.233555
 H         2.547121         1.716346         0.245680
