19
Iteration:  3929charge 0 multiplicity 1
 C         0.321831        -0.223251         0.521591
 C         1.069889         0.274516        -0.721171
 C         0.609614         0.302357        -2.164841
 C         1.684209         1.021836        -2.975739
 C         1.443762         1.363301        -4.359739
 O         2.455613         0.315039        -4.056984
 C         2.380394         1.881657        -1.936340
 C         2.162561         1.209766        -0.633341
 O         2.485790        -0.219810        -0.717476
 H         0.214271        -1.315204         0.739750
 H         0.561798         0.470657         1.406526
 H        -0.685327        -0.018704         0.199195
 H         0.465273        -0.811975        -2.545612
 H        -0.311963         0.680869        -2.445933
 H         0.487471         0.960416        -4.779079
 H         1.909900         2.286674        -4.793844
 H         3.465361         2.066604        -1.970266
 H         2.038935         2.884871        -2.059992
 H         2.578843         1.626066         0.252987
