19
Iteration:  4053
 C         0.104446        -0.149440         0.334206
 C         1.177606         0.249176        -0.692726
 C         0.821686        -0.051458        -2.159052
 C         1.622965         0.973556        -3.024471
 C         1.262586         1.505361        -4.364015
 O         2.335184         0.529166        -4.190249
 C         2.595538         1.635518        -2.041701
 C         2.170558         1.348917        -0.623589
 O         2.555904        -0.129065        -0.300391
 H        -0.636906        -0.825166        -0.094343
 H         0.588344        -0.714027         1.124624
 H        -0.362931         0.828927         0.644974
 H         0.927202        -1.173757        -2.375185
 H        -0.258300         0.082500        -2.358669
 H         0.381596         1.152779        -4.847428
 H         1.563769         2.451554        -4.752253
 H         3.553911         1.178749        -2.282227
 H         2.739055         2.719982        -2.181979
 H         2.036968         2.085299         0.216944
