19
Iteration:  2237charge 0 multiplicity 1
 C         0.092107        -0.230675         0.318873
 C         1.135504         0.168421        -0.681697
 C         0.724974         0.123942        -2.126209
 C         1.688328         1.001594        -3.002955
 C         1.370472         1.441809        -4.367489
 O         2.325002         0.376580        -4.148122
 C         2.539456         1.745555        -2.041514
 C         2.205705         1.292254        -0.597384
 O         2.579366        -0.059750        -0.422349
 H        -0.821110         0.095790         0.005849
 H         0.060985        -1.333772         0.518081
 H         0.342219         0.180222         1.327659
 H         0.455539        -0.884386        -2.513333
 H        -0.253151         0.607128        -2.088284
 H         0.489291         1.185673        -5.007807
 H         1.846410         2.405744        -4.599248
 H         3.622712         1.593700        -2.145118
 H         2.376339         2.851595        -2.184259
 H         2.188830         2.034300         0.178554
