19
Iteration:  4867
 C         0.284683        -0.360893         0.505457
 C         1.100368         0.192743        -0.700849
 C         0.494850         0.324253        -2.137062
 C         1.578335         1.039464        -3.027106
 C         1.656275         1.510121        -4.394203
 O         2.350979         0.228486        -3.913246
 C         2.345035         1.882722        -2.031694
 C         2.156001         1.287556        -0.679970
 O         2.608521        -0.176755        -0.724998
 H         0.722350         0.010996         1.440179
 H        -0.711995         0.032010         0.468440
 H         0.197519        -1.467079         0.497268
 H         0.109247        -0.609332        -2.549007
 H        -0.409668         0.955599        -1.876909
 H         0.831887         1.318190        -5.108739
 H         2.421986         2.275586        -4.584508
 H         3.443073         1.887879        -2.246835
 H         1.974988         2.851215        -2.010164
 H         2.533721         1.720084         0.145551
