19
Iteration:   719
 C        -0.025464         0.171829         0.287229
 C         1.146974         0.235248        -0.710821
 C         0.901193        -0.143226        -2.179036
 C         1.664856         0.969693        -2.938151
 C         1.250524         1.631204        -4.190190
 O         2.244032         0.566433        -4.320936
 C         2.666519         1.591012        -2.031441
 C         2.315372         1.131023        -0.624736
 O         2.499710        -0.316555        -0.359404
 H        -0.308742         1.175479         0.477685
 H        -0.979173        -0.485785         0.037458
 H         0.309671        -0.157914         1.351493
 H         1.373959        -1.092670        -2.423531
 H        -0.164612        -0.086134        -2.413846
 H         0.275433         1.386381        -4.693900
 H         1.592273         2.698460        -4.462836
 H         3.679007         1.307768        -2.262022
 H         2.728606         2.702235        -1.912987
 H         2.403905         1.827982         0.213147
