19
Iteration:  1766charge 0 multiplicity 1
 C         0.309611        -0.074158         0.571766
 C         1.129087         0.195950        -0.684056
 C         0.538218         0.220313        -2.116775
 C         1.619227         1.106495        -3.058236
 C         1.640561         1.472938        -4.461406
 O         2.360162         0.329926        -3.969381
 C         2.349787         1.889142        -1.996794
 C         2.253251         1.149228        -0.651333
 O         2.418753        -0.359936        -0.713431
 H         0.741366         0.402030         1.457480
 H        -0.848690        -0.078864         0.294574
 H         0.390162        -1.175149         0.789610
 H         0.360437        -0.834487        -2.598916
 H        -0.330733         0.946079        -2.213934
 H         0.867719         1.084904        -5.176886
 H         2.199523         2.397342        -4.652085
 H         3.373123         1.945927        -2.414998
 H         1.994072         2.952693        -1.697404
 H         2.561078         1.631942         0.277908
