19
Iteration:  1266
 C         0.151092         0.059141         0.468799
 C         1.147502         0.189344        -0.690674
 C         0.705251         0.023203        -2.275331
 C         1.659038         1.020642        -3.031541
 C         1.237888         1.448644        -4.383493
 O         2.415956         0.522391        -4.156138
 C         2.591003         1.728273        -2.015016
 C         2.272757         1.157427        -0.689035
 O         2.443707        -0.287078        -0.339297
 H         0.810184        -0.059099         1.267848
 H        -0.392013         1.002678         0.638941
 H        -0.388679        -0.963961         0.483236
 H         0.975458        -0.936124        -2.759187
 H        -0.377406         0.356845        -2.332255
 H         0.472688         1.008025        -4.987057
 H         1.528009         2.452481        -4.630924
 H         3.609087         1.538433        -2.336307
 H         2.273543         2.791712        -1.801320
 H         2.411663         1.840700         0.163113
