19
Iteration:   926charge 0 multiplicity 1
 C        -0.022876         0.204961         0.207292
 C         1.205362         0.123275        -0.717273
 C         0.944314        -0.179399        -2.236250
 C         1.784082         0.893696        -2.936349
 C         1.147589         1.594122        -4.053233
 O         2.172034         0.708304        -4.405442
 C         2.786752         1.396795        -2.049048
 C         2.229764         1.178380        -0.669264
 O         2.470245        -0.120521        -0.172226
 H         0.039273         0.876962         0.963280
 H        -0.912743         0.502355        -0.401651
 H        -0.258527        -0.899176         0.573088
 H         1.433416        -1.135206        -2.556636
 H        -0.137268        -0.351824        -2.429586
 H         0.144026         1.199109        -4.339328
 H         1.325644         2.683416        -4.207499
 H         3.806408         0.933291        -2.123595
 H         2.806825         2.511097        -2.365825
 H         2.426685         2.060090        -0.033216
