19
Iteration:   457
 C         0.105951        -0.003558         0.385344
 C         1.063152         0.252976        -0.687281
 C         0.744249         0.111609        -2.246624
 C         1.747384         1.004999        -2.965003
 C         1.359615         1.656986        -4.248794
 O         2.171904         0.500156        -4.285060
 C         2.725380         1.525994        -1.982282
 C         2.352575         1.105265        -0.597298
 O         2.384049        -0.266816        -0.412919
 H         0.048242        -1.056138         0.568256
 H         0.504533         0.650138         1.313580
 H        -0.899196         0.327927         0.070290
 H         1.046412        -0.915441        -2.483866
 H        -0.348912         0.262207        -2.482302
 H         0.285042         1.603113        -4.679491
 H         1.840428         2.644777        -4.463830
 H         3.569160         1.041072        -2.461871
 H         3.091625         2.633909        -2.096733
 H         2.628828         1.542608         0.367908
