19
Iteration:   564charge 0 multiplicity 1
 C         0.353063        -0.323810         0.373524
 C         1.067199         0.414064        -0.778698
 C         0.345949         0.640734        -2.086834
 C         1.575685         1.179889        -2.909717
 C         1.727673         1.271766        -4.353426
 O         2.322934         0.204859        -3.600065
 C         2.487071         1.958479        -1.930266
 C         2.362255         0.995462        -0.736777
 O         2.363947        -0.314281        -1.074635
 H        -0.239715        -1.183814         0.191768
 H         1.055750        -0.665039         1.138501
 H        -0.167889         0.596963         0.994260
 H        -0.070580        -0.320727        -2.420331
 H        -0.522865         1.270311        -1.936651
 H         0.855248         1.014138        -5.047881
 H         2.601734         1.719611        -4.828114
 H         3.464330         1.925101        -2.448883
 H         2.012690         2.920993        -1.642526
 H         2.837067         1.150128         0.238615
