19
Iteration:   186charge 0 multiplicity 1
 C         0.128521         0.167697         0.380383
 C         1.095143         0.206879        -0.735878
 C         0.785124         0.014285        -2.200407
 C         1.745373         0.960024        -2.984018
 C         1.310411         1.662453        -4.254616
 O         2.287227         0.581337        -4.312802
 C         2.690021         1.624078        -1.967056
 C         2.265482         1.076205        -0.572183
 O         2.392847        -0.438682        -0.431357
 H        -0.820018        -0.399279         0.270022
 H         0.681642        -0.253507         1.337065
 H        -0.207712         1.168369         0.531947
 H         0.942622        -1.024725        -2.527100
 H        -0.292816         0.273151        -2.370850
 H         0.326085         1.436570        -4.579602
 H         1.601355         2.631997        -4.537601
 H         3.669841         1.237761        -2.244240
 H         2.608818         2.728333        -1.934202
 H         2.218333         1.691564         0.342274
