19
Iteration:  2401charge 0 multiplicity 1
 C         0.338098        -0.434669         0.342347
 C         1.084199         0.217929        -0.739440
 C         0.450214         0.488386        -2.167041
 C         1.631367         1.052005        -2.956640
 C         1.566653         1.187857        -4.422034
 O         2.364403         0.192489        -3.794626
 C         2.463043         2.024784        -2.067058
 C         2.145563         1.319911        -0.631025
 O         2.549247        -0.098255        -0.681949
 H        -0.715826        -0.379750         0.359035
 H         0.779346        -1.539638         0.372044
 H         0.666994        -0.131667         1.467866
 H        -0.067225        -0.441326        -2.558812
 H        -0.431663         1.242311        -2.210372
 H         0.691430         0.762544        -4.925261
 H         2.211075         2.000118        -4.808871
 H         3.514325         2.049515        -2.339980
 H         2.069743         3.061047        -1.941057
 H         2.364934         1.912833         0.285272
