19
Iteration:    88charge 0 multiplicity 1
 C         0.405914        -0.387428         0.333695
 C         1.124120         0.327543        -0.760194
 C         0.424290         0.784753        -2.168002
 C         1.550280         1.294036        -2.926722
 C         1.722144         1.216371        -4.409184
 O         2.220721         0.131019        -3.642823
 C         2.498816         1.883729        -1.862445
 C         2.328337         1.112134        -0.621827
 O         2.349898        -0.316163        -1.016005
 H         0.452162        -1.452019         0.061635
 H         0.827768        -0.398986         1.398695
 H        -0.596506        -0.058016         0.341375
 H        -0.079665        -0.094905        -2.519212
 H        -0.279369         1.589883        -1.884786
 H         0.871298         1.011504        -4.984633
 H         2.428851         1.838513        -4.918273
 H         3.477943         1.745534        -2.276077
 H         2.236260         2.925217        -1.672313
 H         2.723729         1.396169         0.350862
