19
Iteration:  1340charge 0 multiplicity 1
 C         0.095048        -0.048054         0.293196
 C         1.105665         0.269511        -0.763016
 C         0.884264        -0.080443        -2.219386
 C         1.791426         0.856641        -2.971062
 C         1.283699         1.666386        -4.155349
 O         2.101389         0.445867        -4.285198
 C         2.774996         1.599533        -2.017168
 C         2.225185         1.292287        -0.675859
 O         2.412966        -0.113011        -0.320910
 H         0.378979         0.333008         1.208566
 H        -0.906565         0.303315        -0.031143
 H         0.149933        -1.228439         0.577885
 H         1.415340        -1.060355        -2.209430
 H        -0.188684         0.042098        -2.504986
 H         0.261805         1.497249        -4.530104
 H         1.766665         2.618963        -4.325978
 H         3.814174         1.131135        -2.008483
 H         2.712973         2.739859        -2.200815
 H         2.283306         1.950335         0.204625
