19
Iteration:  4626
 C         0.208787        -0.084494         0.396653
 C         1.108029         0.165289        -0.731201
 C         0.753062        -0.127554        -2.225901
 C         1.622210         0.950288        -2.954236
 C         1.355072         1.495656        -4.268441
 O         2.356779         0.565569        -4.210997
 C         2.514791         1.741438        -2.018499
 C         2.207896         1.243809        -0.709118
 O         2.500081        -0.112835        -0.372168
 H         0.405515        -1.022761         1.039471
 H         0.129330         0.779991         1.031461
 H        -0.783603        -0.336428         0.102842
 H         1.022439        -1.201909        -2.381113
 H        -0.346312        -0.195202        -2.388787
 H         0.505233         1.453908        -5.002247
 H         1.843991         2.528143        -4.444920
 H         3.688711         1.753934        -2.163603
 H         2.164805         2.796768        -2.098645
 H         2.273554         1.910602         0.146495
