19
Iteration:  4368
 C         0.451451        -0.417755         0.405308
 C         1.039150         0.322640        -0.730952
 C         0.470647         0.330150        -2.177934
 C         1.607459         1.077360        -2.920703
 C         1.577109         1.221053        -4.416136
 O         2.432691         0.263101        -3.690290
 C         2.403832         2.043593        -2.031876
 C         2.245372         1.291298        -0.652808
 O         2.412479        -0.151753        -0.870872
 H         0.314986        -1.499385         0.185910
 H         0.956944        -0.269579         1.306527
 H        -0.635548        -0.047703         0.471077
 H         0.073268        -0.691709        -2.619603
 H        -0.479174         0.939517        -2.236762
 H         0.690279         0.705818        -4.931210
 H         2.111863         2.214803        -4.727087
 H         3.464259         2.098351        -2.334232
 H         1.876387         3.009640        -1.828922
 H         2.416015         1.659993         0.377088
