19
Iteration:  3995charge 0 multiplicity 1
 C         0.165443        -0.054629         0.342545
 C         1.151672         0.169473        -0.690473
 C         0.753359         0.003704        -2.199314
 C         1.766902         0.966232        -2.959209
 C         1.345463         1.450874        -4.312144
 O         2.273781         0.390269        -4.181162
 C         2.524467         1.841804        -1.891491
 C         2.167133         1.208141        -0.617989
 O         2.541657        -0.140207        -0.560597
 H        -0.246497        -1.112915         0.366606
 H         0.528475         0.489808         1.321104
 H        -0.638361         0.537803        -0.006178
 H         0.750558        -1.218569        -2.327636
 H        -0.207421         0.422402        -2.334815
 H         0.383541         1.030321        -4.702288
 H         1.781131         2.445512        -4.607632
 H         3.622379         2.045533        -2.001677
 H         2.090222         2.830323        -1.769164
 H         2.250846         1.816821         0.243377
