19
Iteration:   390
 C        -0.081519         0.351044         0.053794
 C         1.149863         0.187713        -0.780825
 C         1.061410        -0.284054        -2.166962
 C         1.768891         0.838944        -2.962729
 C         1.114719         1.732531        -3.899791
 O         1.973392         0.770744        -4.387515
 C         2.958117         1.364207        -2.080103
 C         2.334694         1.074087        -0.666851
 O         2.421567        -0.259350        -0.180215
 H        -0.723039        -0.390672        -0.337687
 H         0.059280         0.082099         1.120148
 H        -0.632460         1.375694         0.057983
 H         1.756531        -1.146953        -2.161510
 H         0.082673        -0.532389        -2.575923
 H         0.087885         1.722862        -4.391598
 H         1.605852         2.745420        -3.802316
 H         3.872126         0.830092        -2.236528
 H         3.369671         2.427755        -2.257096
 H         2.366169         1.851467         0.093782
