19
Iteration:   531
 C         0.326035        -0.239756         0.470208
 C         1.076442         0.266204        -0.767991
 C         0.485643         0.605315        -2.142240
 C         1.658952         1.134277        -2.942280
 C         1.598959         1.367997        -4.400862
 O         2.328155         0.284205        -3.780795
 C         2.485987         1.865224        -1.950462
 C         2.333693         1.056373        -0.662466
 O         2.335229        -0.405750        -0.914586
 H         0.187286        -1.281202         0.596283
 H         0.827815         0.215225         1.294915
 H        -0.734714         0.320846         0.384951
 H         0.010239        -0.291689        -2.547839
 H        -0.200307         1.415310        -1.917560
 H         0.680524         1.031008        -4.972809
 H         2.296268         2.046088        -4.921228
 H         3.547580         2.003798        -2.231188
 H         2.317660         2.927934        -1.788107
 H         2.708510         1.197367         0.358591
