19
Iteration:  2124charge 0 multiplicity 1
 C         0.134714         0.091088         0.233670
 C         1.183640         0.174586        -0.772784
 C         0.958111        -0.187209        -2.233882
 C         1.707530         0.944993        -2.938955
 C         1.148903         1.375307        -4.248662
 O         2.333066         0.549554        -4.216629
 C         2.558134         1.851683        -1.980149
 C         2.215896         1.187660        -0.646341
 O         2.445836        -0.187307        -0.298069
 H        -0.358404         1.122634         0.240438
 H        -0.697355        -0.707494         0.149509
 H         0.570670        -0.062700         1.133695
 H         1.439489        -1.180840        -2.470028
 H        -0.162985        -0.101550        -2.284971
 H         0.259008         1.046816        -4.803977
 H         1.418046         2.448169        -4.448364
 H         3.698701         1.943468        -2.076473
 H         2.109521         2.899982        -1.994285
 H         2.230985         1.855319         0.218502
