19
Iteration:   669charge 0 multiplicity 1
 C         0.168906        -0.026117         0.453362
 C         1.111855         0.213416        -0.703612
 C         0.602894         0.184430        -2.202445
 C         1.712588         0.974746        -2.983585
 C         1.398838         1.553974        -4.302063
 O         2.344504         0.393884        -4.193898
 C         2.596404         1.741986        -1.999839
 C         2.235188         1.166882        -0.559333
 O         2.461176        -0.299815        -0.589009
 H        -0.933844         0.320755         0.288740
 H         0.228868        -1.059161         0.688853
 H         0.443740         0.376849         1.358179
 H         0.588285        -0.893202        -2.509739
 H        -0.415594         0.631081        -2.358879
 H         0.469949         1.440015        -4.831429
 H         1.933786         2.472258        -4.455811
 H         3.646398         1.331050        -2.140747
 H         2.549924         2.867000        -1.979610
 H         2.527428         1.610684         0.411147
