19
Iteration:    57
 C         0.336729        -0.432604         0.343265
 C         1.088061         0.303615        -0.786683
 C         0.355277         0.782591        -2.058376
 C         1.586379         1.214187        -2.866870
 C         1.720397         1.227411        -4.344777
 O         2.224783         0.119631        -3.555467
 C         2.639548         1.927113        -1.923741
 C         2.340062         1.115449        -0.801119
 O         2.373019        -0.255473        -1.083213
 H         0.627890        -1.498217         0.051510
 H         0.440033        -0.293635         1.335514
 H        -0.843131        -0.258720         0.110900
 H        -0.207329        -0.011863        -2.460678
 H        -0.306259         1.572258        -1.664908
 H         0.907765         0.730372        -4.967553
 H         2.330811         2.044232        -4.800734
 H         3.655458         2.194945        -2.293924
 H         2.255712         2.910521        -1.670130
 H         2.620473         1.443114         0.218928
