19
Iteration:  3893
 C         0.354685        -0.337781         0.368807
 C         1.130737         0.246227        -0.742355
 C         0.479526         0.342667        -2.184543
 C         1.577475         1.050719        -2.960064
 C         1.560124         1.335028        -4.404438
 O         2.358560         0.220193        -3.830521
 C         2.391738         1.953838        -1.961723
 C         2.177672         1.260324        -0.653285
 O         2.551175        -0.142013        -0.714109
 H         0.105255        -1.367676         0.273388
 H         0.815321        -0.224069         1.284719
 H        -0.547397         0.369234         0.387655
 H         0.417756        -0.632053        -2.658372
 H        -0.454638         0.877908        -2.042006
 H         0.710571         1.128292        -5.053937
 H         2.196396         2.135562        -4.779895
 H         3.447127         1.800626        -2.230998
 H         2.030868         2.983771        -1.947511
 H         2.509609         1.780943         0.316266
