19
Iteration:  4461charge 0 multiplicity 1
 C         0.256568        -0.185634         0.466733
 C         1.043766         0.220474        -0.715831
 C         0.694900         0.031649        -2.123868
 C         1.620029         1.018439        -2.982444
 C         1.459134         1.436956        -4.440247
 O         2.404758         0.411726        -4.029105
 C         2.413171         1.897039        -2.030561
 C         2.175689         1.210944        -0.638622
 O         2.531269        -0.130223        -0.623043
 H         0.249240        -1.253276         0.753968
 H         0.493975         0.440784         1.384606
 H        -0.757700        -0.002543         0.280772
 H         0.770362        -0.996132        -2.264066
 H        -0.330673         0.221973        -2.208975
 H         0.589472         1.068094        -4.891742
 H         1.893902         2.342475        -4.716730
 H         3.523520         1.846476        -2.243715
 H         2.053759         2.927770        -2.019520
 H         2.431301         1.664822         0.314365
