19
Iteration:  1665charge 0 multiplicity 1
 C         0.096595         0.007907         0.278129
 C         1.139067         0.242500        -0.697746
 C         0.906215        -0.064786        -2.181417
 C         1.657533         0.922097        -2.956569
 C         1.278319         1.563714        -4.258851
 O         2.196289         0.562817        -4.234534
 C         2.676484         1.559739        -2.021994
 C         2.248620         1.237745        -0.692198
 O         2.479945        -0.169707        -0.297144
 H         0.553862        -0.344393         1.349200
 H        -0.534803         0.968080         0.330848
 H        -0.491670        -0.714843        -0.119044
 H         1.203731        -1.089099        -2.415945
 H        -0.182574        -0.059395        -2.358089
 H         0.242643         1.422519        -4.600779
 H         1.775448         2.528938        -4.554877
 H         3.648876         1.224274        -2.345556
 H         2.498108         2.591570        -2.216413
 H         2.280936         1.879122         0.191473
