19
Iteration:  4655
 C         0.046212        -0.088988         0.314681
 C         1.173921         0.169323        -0.683157
 C         0.936391         0.019527        -2.210767
 C         1.657661         1.092980        -2.924089
 C         1.278450         1.411903        -4.337673
 O         2.278525         0.411854        -4.143116
 C         2.473362         1.838291        -1.928749
 C         2.200283         1.239272        -0.602870
 O         2.600940        -0.192853        -0.550440
 H         0.312520        -0.882782         1.033715
 H        -0.292479         0.819012         0.937855
 H        -0.862905        -0.474254        -0.178304
 H         1.315549        -1.060998        -2.424028
 H        -0.159456         0.258860        -2.261169
 H         0.320006         1.323679        -4.861020
 H         1.847370         2.262592        -4.729843
 H         3.506660         1.676718        -2.010445
 H         2.163798         2.885619        -1.979401
 H         2.436311         1.819219         0.420043
