19
Iteration:  4547charge 0 multiplicity 1
 C         0.042772        -0.136921         0.173985
 C         1.223124         0.277692        -0.735701
 C         0.907010        -0.058935        -2.150276
 C         1.639765         0.996739        -2.929594
 C         1.254632         1.466414        -4.301985
 O         2.222936         0.420043        -4.121247
 C         2.555934         1.805955        -1.984037
 C         2.263769         1.256507        -0.661962
 O         2.590507        -0.113171        -0.347565
 H        -0.437744        -0.918339        -0.382321
 H         0.330889        -0.703656         1.099244
 H        -0.628681         0.627155         0.375355
 H         1.172536        -1.093779        -2.418320
 H        -0.186686        -0.081520        -2.283779
 H         0.362801         0.981712        -4.674933
 H         1.597239         2.450181        -4.647528
 H         3.568675         2.078481        -2.318515
 H         2.099515         2.829991        -2.036395
 H         2.318256         1.954649         0.252274
