19
Iteration:  3373
 C         0.405859        -0.342457         0.439636
 C         1.048091         0.300952        -0.758785
 C         0.482129         0.361667        -2.135886
 C         1.635960         1.084819        -2.918880
 C         1.594006         1.199598        -4.379052
 O         2.443375         0.279505        -3.801476
 C         2.408986         2.002319        -1.975493
 C         2.199637         1.241726        -0.688247
 O         2.400790        -0.175975        -0.844017
 H        -0.160224        -1.192713         0.163249
 H         1.183713        -0.583814         1.161624
 H        -0.397256         0.463070         0.901988
 H         0.445692        -0.577714        -2.657827
 H        -0.379162         1.053933        -2.207501
 H         0.718586         0.712955        -4.801214
 H         2.033407         2.017562        -4.972552
 H         3.473651         2.022322        -2.101503
 H         1.801474         2.916021        -2.128544
 H         2.327880         1.647123         0.352053
