19
Iteration:  2040
 C         0.135696        -0.177124         0.395769
 C         1.098562         0.202308        -0.743389
 C         0.799232        -0.072373        -2.207658
 C         1.741398         0.961126        -3.016951
 C         1.344330         1.539791        -4.303194
 O         2.251160         0.444606        -4.275490
 C         2.661481         1.695252        -2.013529
 C         2.119359         1.291137        -0.653244
 O         2.509211         0.008756        -0.281912
 H        -0.787572         0.306667         0.415290
 H        -0.090915        -1.321852         0.290879
 H         0.634461         0.084153         1.390193
 H         0.798813        -1.096718        -2.660815
 H        -0.245149         0.170685        -2.204890
 H         0.348386         1.238749        -4.656964
 H         1.803222         2.457232        -4.758658
 H         3.652129         1.275716        -1.910562
 H         2.776633         2.733050        -2.285923
 H         1.993685         1.945870         0.188258
