19
Iteration:  4435
 C         0.272066        -0.277982         0.356083
 C         1.188841         0.206308        -0.750921
 C         0.664663         0.331542        -2.201984
 C         1.680158         0.978741        -2.968378
 C         1.475044         1.338496        -4.347149
 O         2.341581         0.233382        -4.048586
 C         2.306746         1.943245        -1.989021
 C         2.215895         1.290098        -0.597221
 O         2.591354        -0.148187        -0.561849
 H         0.424924        -1.280516         0.650316
 H         0.143904         0.211282         1.265831
 H        -0.779401        -0.343399        -0.094747
 H         0.256838        -0.710792        -2.371450
 H        -0.315712         0.824315        -2.129486
 H         0.391823         1.299885        -4.684403
 H         1.992697         2.292144        -4.721970
 H         3.260337         2.311168        -2.281985
 H         1.611356         2.847790        -1.935801
 H         2.309367         1.772840         0.432694
