19
Iteration:  3391charge 0 multiplicity 1
 C         0.464239        -0.186609         0.515303
 C         1.050605         0.204109        -0.786064
 C         0.497616         0.314914        -2.259629
 C         1.613563         1.076845        -2.982890
 C         1.593881         1.296788        -4.430961
 O         2.461944         0.209193        -3.792023
 C         2.316079         1.984427        -1.893700
 C         2.120736         1.193305        -0.608110
 O         2.455047        -0.186907        -0.855184
 H        -0.445800        -0.969123         0.549184
 H         1.361084        -0.487574         1.025904
 H        -0.060980         0.504768         1.054060
 H         0.211288        -0.633524        -2.788397
 H        -0.471285         1.024696        -2.296540
 H         0.762432         0.951345        -5.076193
 H         2.179361         2.127275        -4.814653
 H         3.394050         2.203467        -2.158486
 H         1.923412         3.003728        -1.769186
 H         2.443697         1.624400         0.360942
