19
Iteration:  4616charge 0 multiplicity 1
 C         0.217107        -0.082503         0.429505
 C         1.140441         0.215659        -0.753840
 C         0.791433        -0.139152        -2.220489
 C         1.639673         0.870586        -3.003680
 C         1.339555         1.548686        -4.243233
 O         2.411297         0.566536        -4.265703
 C         2.495408         1.683076        -2.057065
 C         2.125003         1.248680        -0.630302
 O         2.453523        -0.107667        -0.334232
 H         0.798601        -0.982787         0.812081
 H         0.334737         0.612712         1.224362
 H        -0.817403        -0.203237         0.133535
 H         0.842386        -1.105176        -2.657091
 H        -0.197696         0.277260        -2.445480
 H         0.393408         1.201638        -4.728509
 H         1.641563         2.626765        -4.193249
 H         3.593511         1.673714        -2.475128
 H         2.232669         2.764313        -2.050588
 H         2.208484         1.973979         0.110192
