19
Iteration:   645
 C         0.161058        -0.200226         0.395821
 C         1.072699         0.285359        -0.716578
 C         0.562757         0.356891        -2.115741
 C         1.667147         1.066870        -2.910317
 C         1.521964         1.458779        -4.346855
 O         2.318594         0.299587        -3.989780
 C         2.639291         1.803388        -2.031238
 C         2.315669         1.143168        -0.665085
 O         2.399212        -0.250892        -0.719831
 H        -0.963147        -0.269793         0.238210
 H         0.717659        -1.179562         0.692836
 H         0.209591         0.260059         1.324403
 H         0.340412        -0.668170        -2.452448
 H        -0.390218         0.884809        -1.901570
 H         0.523704         1.128813        -4.665966
 H         1.930937         2.413749        -4.815165
 H         3.673692         1.590853        -2.323297
 H         2.376890         2.935547        -2.016929
 H         2.656896         1.471103         0.329134
