19
Iteration:  3208charge 0 multiplicity 1
 C         0.092495         0.004601         0.285199
 C         1.193379         0.204414        -0.740848
 C         0.743080         0.034709        -2.241958
 C         1.657960         1.005200        -2.953997
 C         1.279383         1.403005        -4.324933
 O         2.305665         0.362051        -4.080069
 C         2.478550         1.955321        -1.923163
 C         2.225254         1.160511        -0.577376
 O         2.693970        -0.239035        -0.484299
 H        -0.567689        -0.717600        -0.175431
 H         0.377703        -0.326164         1.247593
 H        -0.527415         1.055580         0.228732
 H         0.992277        -0.987226        -2.451842
 H        -0.240778         0.362164        -2.473360
 H         0.290888         1.029228        -4.654098
 H         1.665043         2.276473        -4.833025
 H         3.527820         1.903077        -2.219714
 H         1.794010         2.899623        -1.906889
 H         2.514091         1.637853         0.379426
