19
Iteration:  2768
 C         0.112174        -0.109517         0.371460
 C         1.145782         0.285961        -0.672185
 C         0.746394         0.025294        -2.251244
 C         1.607220         0.964560        -2.978258
 C         1.380583         1.553184        -4.366232
 O         2.279152         0.444754        -4.209858
 C         2.527216         1.662710        -1.985132
 C         2.305963         1.183168        -0.623524
 O         2.540349        -0.152247        -0.371159
 H         0.622944        -0.731493         1.281753
 H        -0.325385         0.752090         0.948371
 H        -0.699230        -0.629536         0.025500
 H         0.880407        -1.033645        -2.455634
 H        -0.323074         0.374435        -2.274240
 H         0.406820         1.472429        -4.880525
 H         1.847955         2.494917        -4.693949
 H         3.605045         1.618544        -2.351128
 H         2.385981         2.753324        -2.104729
 H         2.434060         1.783369         0.244391
