19
Iteration:  2073charge 0 multiplicity 1
 C         0.086164        -0.053758         0.274371
 C         1.180110         0.204032        -0.730762
 C         0.878367        -0.119755        -2.189645
 C         1.719262         0.877553        -2.958424
 C         1.261955         1.520788        -4.245381
 O         2.299939         0.489832        -4.239070
 C         2.584835         1.709243        -2.030647
 C         2.171905         1.316255        -0.643582
 O         2.513016        -0.051000        -0.300812
 H        -0.559169         0.726805         0.444272
 H        -0.574174        -0.933938        -0.128405
 H         0.437871        -0.600677         1.218814
 H         1.007879        -1.196024        -2.421504
 H        -0.161928         0.107208        -2.148289
 H         0.266690         1.163459        -4.561101
 H         1.521791         2.488031        -4.740142
 H         3.608458         1.336365        -2.107338
 H         2.548884         2.723306        -2.395480
 H         2.160759         2.039951         0.151861
