19
Iteration:  2342
 C         0.306319        -0.275131         0.399572
 C         1.146577         0.222957        -0.697938
 C         0.479186         0.312778        -2.140439
 C         1.473585         1.119446        -2.973764
 C         1.648082         1.225282        -4.428636
 O         2.488694         0.263308        -3.780857
 C         2.277756         2.025678        -2.027534
 C         2.259299         1.207483        -0.708389
 O         2.504334        -0.173851        -0.744522
 H        -0.483355         0.513153         0.773652
 H        -0.219293        -1.196133         0.089756
 H         0.941489        -0.486832         1.148487
 H         0.340306        -0.754531        -2.427959
 H        -0.477586         0.850953        -1.974918
 H         0.840661         0.846191        -5.067112
 H         2.110816         2.092313        -4.892399
 H         3.262081         2.272786        -2.486171
 H         1.881266         2.921640        -1.585165
 H         2.679349         1.763335         0.136582
