19
Iteration:  4211charge 0 multiplicity 1
 C         0.117459        -0.246537         0.338461
 C         1.132253         0.298237        -0.711636
 C         0.746943        -0.013319        -2.193492
 C         1.553671         1.020270        -2.953696
 C         1.440760         1.523023        -4.324014
 O         2.250913         0.372880        -4.145349
 C         2.574916         1.813551        -2.009193
 C         2.191037         1.259721        -0.601525
 O         2.585315        -0.112315        -0.471989
 H         0.142298        -1.298669         0.664296
 H         0.142433         0.484604         1.236534
 H        -0.896229        -0.092531         0.033574
 H         1.101888        -0.997366        -2.314035
 H        -0.401501         0.041530        -2.323716
 H         0.518739         1.360216        -4.917230
 H         1.975517         2.465188        -4.525243
 H         3.670762         1.509544        -2.236163
 H         2.634790         2.904832        -2.146742
 H         2.495102         1.916604         0.249006
