19
Iteration:  1185charge 0 multiplicity 1
 C         0.257640        -0.303416         0.370614
 C         1.179097         0.241214        -0.714737
 C         0.522749         0.459792        -2.162345
 C         1.543706         1.207207        -2.993290
 C         1.527308         1.210134        -4.462418
 O         2.337609         0.240712        -3.924770
 C         2.469460         1.939756        -1.997641
 C         2.279744         1.180432        -0.621028
 O         2.545102        -0.237866        -0.587151
 H         0.557857        -0.135395         1.462658
 H        -0.718031         0.136886         0.299398
 H         0.085584        -1.333145         0.115647
 H         0.033189        -0.365087        -2.715255
 H        -0.358253         1.046062        -1.838785
 H         0.653893         0.799424        -5.014993
 H         1.944480         2.147431        -4.890810
 H         3.528634         2.012148        -2.419763
 H         2.229517         3.047520        -1.805941
 H         2.418991         1.690415         0.353245
