19
Iteration:  3293
 C         0.304688        -0.247193         0.498166
 C         1.120077         0.225268        -0.779892
 C         0.595296         0.283356        -2.165859
 C         1.626598         1.053246        -2.974118
 C         1.503812         1.356465        -4.411942
 O         2.362301         0.243680        -3.980777
 C         2.487323         1.898820        -1.933424
 C         2.132897         1.282979        -0.633591
 O         2.506390        -0.137893        -0.680800
 H         0.508394        -1.393216         0.521356
 H         0.460145         0.226384         1.476822
 H        -0.748537        -0.424363         0.286244
 H         0.418341        -0.695993        -2.601641
 H        -0.432490         0.809765        -2.288042
 H         0.506247         1.156062        -4.847203
 H         2.059610         2.123458        -4.936308
 H         3.554402         2.076127        -2.146748
 H         2.088911         2.889858        -2.046158
 H         2.290805         1.623410         0.355548
