19
Iteration:   975charge 0 multiplicity 1
 C         0.091972        -0.127844         0.346885
 C         1.098520         0.320040        -0.721942
 C         0.846393        -0.009856        -2.229478
 C         1.742327         0.946645        -3.011077
 C         1.332753         1.674097        -4.149828
 O         2.162758         0.391796        -4.332922
 C         2.754068         1.573376        -2.020997
 C         2.206790         1.243512        -0.627456
 O         2.436528        -0.124100        -0.339937
 H         0.438592         0.465957         1.333632
 H        -0.875997         0.326290         0.084094
 H        -0.038328        -1.138660         0.440597
 H         1.166446        -1.048565        -2.341722
 H        -0.212007         0.043734        -2.533826
 H         0.221164         1.726452        -4.289085
 H         1.940086         2.561561        -4.396874
 H         3.655093         0.936964        -2.121462
 H         2.880731         2.664247        -2.159183
 H         2.206183         2.059591         0.094442
