19
Iteration:   337charge 0 multiplicity 1
 C        -0.111374         0.408452        -0.183859
 C         1.212358         0.135145        -0.825355
 C         1.187455        -0.440191        -2.198684
 C         1.896671         0.810912        -2.960115
 C         0.996595         1.733134        -3.660078
 O         1.859414         0.916687        -4.434031
 C         3.022571         1.191034        -2.058642
 C         2.426832         1.157666        -0.694137
 O         2.325548        -0.187645        -0.067815
 H        -0.755244        -0.436800        -0.057718
 H         0.094807         1.060531         0.831031
 H        -0.763004         0.971125        -0.855101
 H         1.691340        -1.427344        -2.206002
 H         0.125164        -0.631978        -2.500474
 H        -0.089712         1.437355        -3.596908
 H         1.148535         2.815641        -3.842813
 H         3.896793         0.636653        -2.330320
 H         3.445041         2.276912        -2.074039
 H         2.512402         2.005820         0.018139
