19
Iteration:  1742
 C         0.199062        -0.099047         0.506133
 C         1.056541         0.249288        -0.709177
 C         0.563355         0.129756        -2.192791
 C         1.643822         1.035689        -2.938202
 C         1.549114         1.478501        -4.309534
 O         2.312242         0.378498        -4.064989
 C         2.541018         1.757785        -1.981433
 C         2.284151         1.169403        -0.651788
 O         2.466687        -0.212887        -0.701744
 H         0.608878         0.577482         1.348612
 H        -0.916438        -0.074652         0.319909
 H         0.367687        -1.022374         0.852715
 H         0.729946        -0.799624        -2.749391
 H        -0.478531         0.485891        -2.252989
 H         0.644107         1.224939        -4.904166
 H         2.015179         2.455178        -4.523118
 H         3.566181         1.660463        -2.292227
 H         2.214806         2.797154        -2.081519
 H         2.587959         1.705160         0.249190
