19
Iteration:  4443
 C         0.205437        -0.239304         0.421921
 C         1.204271         0.218519        -0.702780
 C         0.608559         0.197465        -2.210306
 C         1.656455         0.956264        -2.981751
 C         1.464024         1.372605        -4.370315
 O         2.348662         0.286134        -4.091160
 C         2.359736         1.953692        -1.903082
 C         2.242862         1.308154        -0.609080
 O         2.575235        -0.148366        -0.590240
 H         0.531345        -1.340725         0.581012
 H         0.264410         0.345198         1.365084
 H        -0.861478        -0.308036         0.033110
 H         0.602762        -0.885076        -2.696047
 H        -0.396492         0.820129        -2.271906
 H         0.505351         1.039607        -4.924123
 H         2.107257         2.312722        -4.589022
 H         3.369165         2.212903        -2.318923
 H         1.655056         2.787721        -1.888891
 H         2.401844         1.918755         0.258793
