19
Iteration:   756charge 0 multiplicity 1
 C        -0.105262         0.170960         0.146187
 C         1.158153         0.230403        -0.802941
 C         1.028905        -0.182303        -2.275382
 C         1.843413         0.952697        -2.967519
 C         1.079444         1.552332        -3.924489
 O         2.132488         0.647267        -4.366908
 C         2.847014         1.467475        -2.041729
 C         2.301827         1.181971        -0.657970
 O         2.453222        -0.190414        -0.198953
 H        -0.240603         1.236212         0.687593
 H        -1.103517        -0.087982        -0.269495
 H         0.278845        -0.485869         0.838686
 H         1.231334        -1.262391        -2.381560
 H         0.001718        -0.161852        -2.638831
 H         0.005948         1.346508        -4.062618
 H         1.451019         2.548117        -4.085330
 H         3.731269         0.839156        -2.303360
 H         3.009194         2.546378        -2.126908
 H         2.270964         2.013240         0.064204
