19
Iteration:   657
 C         0.153584        -0.178834         0.513929
 C         1.054201         0.310520        -0.695277
 C         0.597270         0.281672        -2.175400
 C         1.709019         0.983018        -2.958180
 C         1.438590         1.498732        -4.305944
 O         2.313641         0.390261        -4.040176
 C         2.638955         1.690155        -1.981884
 C         2.294457         1.161844        -0.668221
 O         2.450776        -0.251198        -0.693967
 H        -0.908726        -0.060083         0.065000
 H         0.193288        -1.247892         0.750449
 H         0.290774         0.466799         1.287298
 H         0.451441        -0.735137        -2.604260
 H        -0.315367         0.861823        -2.453994
 H         0.561836         1.255168        -4.897178
 H         1.983400         2.383019        -4.684127
 H         3.719894         1.599983        -2.261109
 H         2.402341         2.813926        -2.009546
 H         2.607177         1.786824         0.187897
