19
Iteration:   813
 C        -0.090099         0.127911         0.024374
 C         1.168227         0.167987        -0.752887
 C         1.138467        -0.357477        -2.210688
 C         1.820299         0.763826        -3.013805
 C         1.096960         1.805866        -3.843578
 O         1.992070         0.749850        -4.401860
 C         2.917326         1.202132        -2.142536
 C         2.227608         1.277539        -0.766327
 O         2.445125         0.024755         0.018442
 H         0.181221         0.543851         1.074274
 H        -0.758684         0.751434        -0.470491
 H        -0.681124        -0.819060         0.070047
 H         1.962084        -1.083423        -2.037765
 H         0.208976        -0.841368        -2.568389
 H         0.080362         1.714895        -4.157760
 H         1.508009         2.766898        -3.915195
 H         3.878895         0.581244        -2.332980
 H         3.031615         2.227454        -2.399439
 H         2.089250         2.242455        -0.271889
