19
Iteration:   993
 C         0.057574        -0.059580         0.322755
 C         1.167045         0.142682        -0.704462
 C         0.756943         0.047504        -2.188208
 C         1.712243         0.883821        -2.980621
 C         1.384065         1.650648        -4.286090
 O         2.144222         0.459929        -4.222446
 C         2.733519         1.611156        -2.025097
 C         2.155346         1.229016        -0.652585
 O         2.554274        -0.129998        -0.312777
 H         0.415761         0.122093         1.272417
 H        -0.906187         0.548880         0.216808
 H        -0.097781        -1.184019         0.292801
 H         0.605602        -0.922095        -2.689926
 H        -0.238838         0.508455        -2.346972
 H         0.480739         1.379415        -4.904900
 H         1.917598         2.575056        -4.582524
 H         3.791689         1.373774        -2.170541
 H         2.753655         2.760303        -2.203307
 H         2.349091         1.814842         0.238593
