19
Iteration:  4415
 C         0.247686        -0.386190         0.280130
 C         1.161267         0.169406        -0.739210
 C         0.574546         0.366577        -2.139326
 C         1.653158         1.025571        -2.942896
 C         1.440701         1.296552        -4.436708
 O         2.313420         0.219082        -3.892459
 C         2.437958         2.005924        -1.919893
 C         2.211029         1.329024        -0.659582
 O         2.608681        -0.097962        -0.632852
 H         0.627201        -1.352721         0.464605
 H         0.322518         0.141757         1.271302
 H        -0.799569        -0.556458        -0.016047
 H         0.081417        -0.495206        -2.607513
 H        -0.243334         1.029882        -1.964952
 H         0.660342         0.836163        -5.008533
 H         2.040557         2.048347        -4.895418
 H         3.458722         2.170298        -2.163711
 H         1.824800         2.952690        -1.915360
 H         2.413820         1.922398         0.315213
