19
Iteration:  1166charge 0 multiplicity 1
 C         0.275803        -0.411288         0.318378
 C         1.141607         0.286104        -0.760846
 C         0.475384         0.583707        -2.107995
 C         1.674154         1.053831        -2.972373
 C         1.455369         1.196655        -4.423316
 O         2.371186         0.246163        -3.776942
 C         2.516455         1.933303        -1.962620
 C         2.230231         1.246799        -0.626023
 O         2.487308        -0.159605        -0.756560
 H         0.752298        -0.183225         1.160024
 H        -0.775346        -0.060518         0.364372
 H         0.317362        -1.572448         0.129501
 H        -0.028686        -0.342623        -2.456134
 H        -0.273930         1.407164        -1.988187
 H         0.509893         0.809064        -4.769968
 H         1.987551         1.738144        -5.140295
 H         3.572084         1.783675        -2.215119
 H         2.129398         2.961523        -1.967034
 H         2.697188         1.724938         0.222089
