19
Iteration:  2530
 C         0.097508        -0.079388         0.364699
 C         1.128546         0.247395        -0.690431
 C         0.822192        -0.053951        -2.159527
 C         1.707669         0.945134        -2.974647
 C         1.279846         1.403582        -4.302580
 O         2.377437         0.410282        -4.141502
 C         2.518671         1.854341        -1.981422
 C         2.212611         1.260894        -0.681244
 O         2.530635        -0.114248        -0.485856
 H        -0.493800         0.836060         0.643910
 H        -0.792586        -0.691516        -0.096687
 H         0.586608        -0.488498         1.181141
 H         0.963882        -1.133631        -2.581962
 H        -0.260256         0.175459        -2.057858
 H         0.327746         0.926362        -4.582382
 H         1.660239         2.378586        -4.696741
 H         3.605450         1.851273        -2.229999
 H         2.237083         2.899509        -2.277372
 H         2.289838         1.894164         0.220495
