19
Iteration:   691charge 0 multiplicity 1
 C         0.173221         0.072549         0.385057
 C         1.114823         0.163715        -0.743207
 C         0.747608         0.006193        -2.192851
 C         1.707458         0.997154        -2.960933
 C         1.382179         1.601551        -4.316049
 O         2.248479         0.512851        -4.237878
 C         2.628780         1.646625        -1.994824
 C         2.243060         1.102584        -0.644677
 O         2.434987        -0.294226        -0.385993
 H        -0.582226         0.957250         0.265027
 H        -0.285603        -0.842681         0.595062
 H         0.680180         0.264012         1.270750
 H         0.818006        -1.041747        -2.609152
 H        -0.279951         0.364047        -2.390075
 H         0.426312         1.453680        -4.812434
 H         1.898273         2.500776        -4.603061
 H         3.747440         1.575413        -2.191885
 H         2.269284         2.664587        -1.734792
 H         2.255975         1.833837         0.182163
