19
Iteration:  3885charge 0 multiplicity 1
 C         0.297194        -0.305630         0.379733
 C         1.194443         0.234695        -0.684589
 C         0.501283         0.382335        -2.120106
 C         1.554238         1.122477        -2.948811
 C         1.614234         1.296030        -4.467614
 O         2.336839         0.241643        -3.829072
 C         2.341481         1.884718        -1.987770
 C         2.207971         1.245253        -0.636374
 O         2.560998        -0.119471        -0.743888
 H        -0.021653        -1.333746        -0.048343
 H         0.861418        -0.540890         1.366808
 H        -0.695545         0.055202         0.531521
 H         0.351945        -0.645274        -2.693746
 H        -0.517194         0.652732        -2.070273
 H         0.764917         0.995640        -5.138069
 H         2.305864         2.102924        -4.828222
 H         3.367519         1.929860        -2.409774
 H         2.195736         2.934357        -1.783534
 H         2.343325         1.897905         0.213849
