19
Iteration:  3785
 C         0.335062        -0.164768         0.418394
 C         1.104226         0.260511        -0.729822
 C         0.537986         0.252294        -2.144145
 C         1.524197         0.999848        -2.986600
 C         1.585646         1.392517        -4.412515
 O         2.451924         0.349918        -3.820771
 C         2.309678         1.961405        -2.005197
 C         2.272992         1.153792        -0.760752
 O         2.470122        -0.260248        -0.670805
 H        -0.122657        -1.183741         0.203042
 H         0.945608        -0.233653         1.289674
 H        -0.462729         0.545699         0.862242
 H         0.474019        -0.873536        -2.474052
 H        -0.526010         0.541719        -2.140810
 H         0.875587         0.926530        -5.125539
 H         2.065595         2.305190        -4.811222
 H         3.331869         2.112649        -2.412513
 H         1.883664         2.953010        -1.975687
 H         2.596353         1.521755         0.281492
