19
Iteration:  1402
 C        -0.006387         0.152959         0.206651
 C         1.198943         0.238730        -0.719525
 C         0.943230        -0.279258        -2.235677
 C         1.705246         0.874026        -2.962280
 C         1.177232         1.555569        -4.097389
 O         2.208246         0.682120        -4.333775
 C         2.747986         1.523306        -2.031369
 C         2.306833         1.215562        -0.652631
 O         2.438671        -0.147805        -0.269932
 H         0.418922         0.642906         1.293844
 H        -0.948646         0.735626         0.071303
 H        -0.149362        -0.839390         0.429575
 H         1.232516        -1.328323        -2.403516
 H        -0.132594        -0.258814        -2.498316
 H         0.173736         1.206109        -4.510284
 H         1.338257         2.641192        -4.187445
 H         3.703966         1.008541        -2.177219
 H         2.765769         2.570264        -2.212624
 H         2.220231         2.027731         0.140991
