19
Iteration:  1254
 C         0.243872         0.093186         0.591430
 C         1.101512         0.190784        -0.732150
 C         0.710820        -0.001500        -2.218506
 C         1.659024         0.941512        -3.014920
 C         1.340936         1.487620        -4.376715
 O         2.430410         0.511156        -4.139171
 C         2.556787         1.711593        -1.995975
 C         2.172988         1.187554        -0.646619
 O         2.446206        -0.279718        -0.529293
 H         0.739192         0.012988         1.469499
 H        -0.563738         0.849758         0.663091
 H        -0.522548        -0.780759         0.333257
 H         0.703022        -1.097262        -2.457024
 H        -0.321080         0.266114        -2.613134
 H         0.433723         1.145345        -4.850292
 H         1.659323         2.446404        -4.691327
 H         3.614416         1.915063        -2.224724
 H         2.210606         2.802896        -2.097765
 H         2.445424         1.722423         0.265756
