19
Iteration:  1337
 C         0.072458        -0.047147         0.286621
 C         1.126802         0.291246        -0.789694
 C         0.890943        -0.071096        -2.199374
 C         1.778092         0.844410        -2.961975
 C         1.300773         1.658147        -4.130569
 O         2.093896         0.435556        -4.269204
 C         2.777496         1.622785        -2.003918
 C         2.215289         1.289064        -0.695432
 O         2.426856        -0.131312        -0.342380
 H         0.334642         0.308383         1.343570
 H        -0.944752         0.240239        -0.003685
 H         0.182738        -1.090711         0.401598
 H         1.392703        -1.039390        -2.282545
 H        -0.148455         0.015050        -2.491695
 H         0.230945         1.487300        -4.448192
 H         1.776664         2.620067        -4.383674
 H         3.779076         1.191308        -1.995786
 H         2.668403         2.655704        -2.168680
 H         2.295708         2.017470         0.125695
