19
Iteration:  4454
 C         0.225199        -0.216031         0.436288
 C         1.098225         0.243320        -0.682317
 C         0.651814         0.060895        -2.144291
 C         1.644105         0.992697        -2.969128
 C         1.473904         1.417848        -4.396031
 O         2.375266         0.348918        -4.069832
 C         2.396583         1.921077        -1.991455
 C         2.215404         1.233234        -0.611121
 O         2.553267        -0.119181        -0.614834
 H         0.449325        -1.300446         0.787935
 H         0.424254         0.403984         1.330899
 H        -0.889820        -0.060452         0.196757
 H         0.586223        -1.022247        -2.641551
 H        -0.481415         0.421416        -2.261265
 H         0.653924         1.101376        -5.149800
 H         1.813014         2.427259        -4.875544
 H         3.484919         2.181267        -2.140248
 H         1.980862         2.933747        -1.923238
 H         2.514655         1.720109         0.308732
