19
Iteration:  1046
 C         0.179884        -0.066238         0.490377
 C         1.123632         0.247231        -0.763287
 C         0.616360         0.155509        -2.107256
 C         1.742636         1.065196        -2.954543
 C         1.369598         1.413053        -4.364499
 O         2.439882         0.363827        -3.996798
 C         2.531339         1.919189        -1.950935
 C         2.325076         1.086622        -0.649899
 O         2.358955        -0.247914        -0.750912
 H         0.697458        -0.253109         1.353225
 H        -0.498937         0.819346         0.678908
 H        -0.598524        -0.947050         0.137739
 H         0.821705        -0.872540        -2.482940
 H        -0.419080         0.451541        -2.372305
 H         0.472794         0.911239        -4.684941
 H         1.799551         2.145618        -5.018435
 H         3.544778         2.073033        -2.295904
 H         1.966738         2.797420        -1.698552
 H         2.624054         1.491082         0.325304
