19
Iteration:  1151charge 0 multiplicity 1
 C         0.343357        -0.401628         0.302684
 C         1.027404         0.355650        -0.736000
 C         0.530771         0.531528        -2.093042
 C         1.645308         1.141500        -2.874339
 C         1.514871         1.165441        -4.317321
 O         2.360204         0.091437        -3.773021
 C         2.509789         1.958794        -1.963718
 C         2.250264         1.267747        -0.632723
 O         2.440336        -0.125472        -0.942529
 H         0.768776        -0.465302         1.398964
 H        -0.688061        -0.144611         0.303740
 H         0.412679        -1.387185         0.025341
 H         0.118226        -0.295692        -2.701621
 H        -0.182983         1.382091        -2.048180
 H         0.632016         0.763319        -4.859133
 H         1.864953         2.172722        -4.734109
 H         3.639277         1.923331        -2.211523
 H         2.149665         3.048104        -1.966836
 H         2.464467         1.634996         0.396765
