19
Iteration:  4426
 C         0.280177        -0.345253         0.268090
 C         1.182123         0.235483        -0.736419
 C         0.608385         0.319460        -2.079302
 C         1.722009         1.025721        -2.974432
 C         1.465611         1.362436        -4.351035
 O         2.322929         0.198341        -3.990817
 C         2.321035         1.968276        -2.020889
 C         2.171015         1.218769        -0.600259
 O         2.596226        -0.118003        -0.570712
 H         0.586752        -1.298428         0.570302
 H         0.300788         0.381854         1.101390
 H        -0.730486        -0.298880        -0.127093
 H         0.289668        -0.526444        -2.660394
 H        -0.090844         1.105100        -2.004601
 H         0.531844         1.045091        -4.786238
 H         1.942870         2.141621        -4.894553
 H         3.297461         2.340295        -2.219974
 H         1.655536         2.881209        -2.030333
 H         2.363547         1.834904         0.352443
