19
Iteration:  3111
 C         0.151935        -0.091771         0.407852
 C         1.138022         0.237191        -0.699518
 C         0.742680        -0.024399        -2.169820
 C         1.647096         0.982988        -2.971162
 C         1.411987         1.558107        -4.275407
 O         2.261472         0.403262        -4.175994
 C         2.551021         1.679567        -2.064262
 C         2.215399         1.211648        -0.656180
 O         2.529396        -0.107958        -0.460626
 H         0.339056        -1.044118         0.752974
 H         0.144312         0.593767         1.189109
 H        -0.929634        -0.204547        -0.053597
 H         1.000270        -0.984696        -2.749427
 H        -0.320268         0.344753        -2.272077
 H         0.502258         1.552226        -4.897927
 H         1.986341         2.492788        -4.370660
 H         3.615023         1.570343        -2.142541
 H         2.193799         2.752000        -2.044902
 H         2.367930         1.880851         0.298476
