19
Iteration:  3558charge 0 multiplicity 1
 C         0.121479        -0.014087         0.378507
 C         1.136993         0.153399        -0.749115
 C         0.822831         0.009871        -2.249947
 C         1.700407         0.951924        -2.977820
 C         1.361174         1.547363        -4.327076
 O         2.236249         0.362096        -4.180221
 C         2.584813         1.800421        -1.945791
 C         2.137340         1.258289        -0.584148
 O         2.553550        -0.171288        -0.441995
 H        -0.186658        -1.172457         0.421733
 H         0.746614         0.217025         1.277364
 H        -0.947117         0.334873         0.210075
 H         1.101157        -0.968612        -2.568848
 H        -0.174917         0.229281        -2.551606
 H         0.386009         1.187581        -4.691419
 H         1.700338         2.534300        -4.699339
 H         3.653422         1.722663        -2.118067
 H         2.309599         2.885932        -1.853157
 H         2.245439         1.808225         0.374506
