19
Iteration:   690
 C         0.179366         0.067449         0.386988
 C         1.111061         0.171227        -0.748897
 C         0.748955         0.008941        -2.178655
 C         1.698268         0.998845        -2.960585
 C         1.395376         1.595013        -4.312241
 O         2.247801         0.513116        -4.242889
 C         2.633242         1.647198        -1.984522
 C         2.241575         1.106024        -0.648760
 O         2.432697        -0.295991        -0.394046
 H        -0.585414         0.938069         0.243733
 H        -0.290528        -0.886651         0.623591
 H         0.686640         0.283279         1.245478
 H         0.783093        -1.018980        -2.619757
 H        -0.272888         0.372895        -2.371842
 H         0.429346         1.414961        -4.804966
 H         1.908668         2.521022        -4.633644
 H         3.720574         1.559674        -2.183715
 H         2.239258         2.673001        -1.739802
 H         2.248413         1.844144         0.171911
