19
Iteration:   863charge 0 multiplicity 1
 C        -0.112695         0.331825         0.006014
 C         1.126704         0.263306        -0.784317
 C         1.252986        -0.393724        -2.222812
 C         1.898464         0.800235        -3.031758
 C         0.922214         1.630902        -3.800551
 O         1.999203         0.676824        -4.420779
 C         2.971585         1.453262        -2.027022
 C         2.331393         1.193959        -0.703208
 O         2.393944        -0.150113        -0.122559
 H         0.051074         0.114630         1.078604
 H        -0.836755         1.219019        -0.234312
 H        -0.717622        -0.450928        -0.335809
 H         1.937058        -1.237735        -2.208366
 H         0.230864        -0.629435        -2.476280
 H        -0.191767         1.316733        -3.956475
 H         1.030153         2.714573        -4.076522
 H         3.954805         1.004265        -1.934578
 H         3.129202         2.574035        -2.132976
 H         2.279800         1.914862         0.115960
