19
Iteration:   791charge 0 multiplicity 1
 C        -0.092692         0.182396         0.097193
 C         1.173914         0.179861        -0.777088
 C         1.179923        -0.421406        -2.202700
 C         1.785846         0.784182        -3.013172
 C         1.117367         1.785575        -3.964292
 O         1.992261         0.722905        -4.483232
 C         2.896273         1.348864        -2.029160
 C         2.240901         1.300050        -0.703193
 O         2.405860        -0.068169        -0.037081
 H         0.000563         0.857765         1.018625
 H        -0.994425         0.226417        -0.360841
 H        -0.140434        -0.836966         0.538411
 H         1.882230        -1.287229        -2.240987
 H         0.131635        -0.608082        -2.484441
 H         0.074168         1.934637        -4.105527
 H         1.625011         2.703367        -3.922317
 H         3.683457         0.540134        -2.252380
 H         3.382438         2.250224        -2.339406
 H         2.205174         2.160373        -0.034675
