19
Iteration:  3897charge 0 multiplicity 1
 C         0.355092        -0.332341         0.365277
 C         1.096890         0.235246        -0.786721
 C         0.488845         0.320512        -2.190282
 C         1.583647         1.039852        -2.965185
 C         1.550964         1.346011        -4.367564
 O         2.358565         0.217132        -3.837078
 C         2.415062         1.974810        -1.959298
 C         2.180988         1.280049        -0.643586
 O         2.546018        -0.151544        -0.706502
 H         0.115710        -1.445146         0.332385
 H         0.886818        -0.038874         1.376007
 H        -0.454154         0.344772         0.399889
 H         0.328207        -0.739766        -2.632090
 H        -0.368969         0.989353        -2.114220
 H         0.666570         1.093513        -4.999119
 H         2.153225         2.194632        -4.769347
 H         3.493238         1.862509        -2.154230
 H         1.980784         2.974488        -2.072387
 H         2.516788         1.660653         0.282053
