19
Iteration:  2392
 C         0.376715        -0.420708         0.297903
 C         1.119689         0.316503        -0.797913
 C         0.445470         0.481000        -2.192613
 C         1.602806         1.022508        -2.871346
 C         1.585804         1.137372        -4.352933
 O         2.365797         0.164295        -3.833408
 C         2.437407         1.991156        -1.969729
 C         2.139826         1.282594        -0.593804
 O         2.523927        -0.041414        -0.766226
 H        -0.661435        -0.286348         0.319204
 H         0.606840        -1.492033         0.216929
 H         0.812268         0.105628         1.307224
 H         0.111595        -0.408081        -2.638389
 H        -0.290243         1.126453        -1.727956
 H         0.727814         0.843121        -4.963808
 H         2.137942         1.961861        -4.866237
 H         3.482653         2.036503        -2.242294
 H         1.973994         3.004873        -2.072011
 H         2.220952         1.734795         0.408561
