19
Iteration:   937charge 0 multiplicity 1
 C        -0.018721         0.102513         0.270710
 C         1.100854         0.231328        -0.721739
 C         0.968502        -0.159243        -2.215191
 C         1.754962         0.863877        -3.010912
 C         1.139227         1.640251        -4.023406
 O         2.222159         0.632385        -4.369467
 C         2.828058         1.451149        -2.080773
 C         2.257917         1.237268        -0.725223
 O         2.436856        -0.149450        -0.206964
 H         0.140235         0.692537         1.076282
 H        -1.000884         0.319739        -0.226137
 H        -0.106434        -0.983598         0.760100
 H         1.404764        -1.178851        -2.365853
 H        -0.051189        -0.063579        -2.644813
 H         0.102696         1.309990        -4.277980
 H         1.349216         2.676777        -4.329916
 H         3.770179         0.903810        -2.324454
 H         3.083665         2.583713        -2.109231
 H         2.242392         1.933128         0.125912
