19
Iteration:  2239
 C         0.093477        -0.239016         0.328102
 C         1.133468         0.178955        -0.713116
 C         0.722308         0.126890        -2.125885
 C         1.662147         0.995622        -2.980825
 C         1.369096         1.438411        -4.371878
 O         2.340707         0.376486        -4.143803
 C         2.538513         1.749219        -2.046498
 C         2.215523         1.291456        -0.600439
 O         2.583567        -0.070037        -0.418408
 H        -0.834745         0.106497         0.012290
 H         0.003730        -1.247923         0.502721
 H         0.351071         0.160420         1.389637
 H         0.531352        -0.843348        -2.532447
 H        -0.246460         0.626244        -2.066091
 H         0.489854         1.229222        -4.992533
 H         1.862121         2.389109        -4.597078
 H         3.586058         1.628140        -2.191758
 H         2.335353         2.821857        -2.233064
 H         2.176074         2.046808         0.214246
