19
Iteration:   916
 C        -0.019484         0.264380         0.098430
 C         1.200584         0.127823        -0.744650
 C         1.007640        -0.306319        -2.206646
 C         1.725287         0.806962        -2.991374
 C         1.086826         1.620781        -4.124932
 O         2.127547         0.749863        -4.381939
 C         2.812688         1.464983        -2.006828
 C         2.244323         1.163895        -0.599761
 O         2.533414        -0.149009        -0.120568
 H         0.126923         0.902726         0.889447
 H        -0.788318         0.796594        -0.533936
 H        -0.440648        -0.673953         0.563739
 H         1.309148        -1.346178        -2.432258
 H        -0.096500        -0.247171        -2.366375
 H         0.032466         1.430276        -4.511598
 H         1.360594         2.705475        -4.124545
 H         3.809761         0.951190        -2.065235
 H         3.138641         2.539540        -2.284657
 H         2.129138         1.940227         0.200833
