19
Iteration:  2586
 C         0.099795        -0.183971         0.394522
 C         1.115521         0.282130        -0.666938
 C         0.816317        -0.020577        -2.192722
 C         1.672743         0.893359        -3.003904
 C         1.298232         1.481755        -4.351457
 O         2.274422         0.491274        -4.233213
 C         2.648043         1.694692        -2.071783
 C         2.201270         1.274512        -0.660099
 O         2.502672        -0.059168        -0.255901
 H        -0.700227         0.333715         0.020059
 H         0.146240        -1.288977         0.238886
 H         0.323532         0.199769         1.413901
 H         1.221633        -1.042904        -2.495045
 H        -0.281605         0.029121        -2.228655
 H         0.399772         1.255620        -4.944181
 H         1.705395         2.482508        -4.567736
 H         3.676926         1.548716        -2.308502
 H         2.375137         2.735011        -2.307932
 H         2.325044         2.095452         0.023428
