19
Iteration:  4711
 C         0.145920        -0.272504         0.488867
 C         1.167718         0.195455        -0.698455
 C         0.561798         0.154525        -2.109474
 C         1.592892         1.052535        -2.980867
 C         1.438084         1.422495        -4.427294
 O         2.462026         0.441615        -4.142647
 C         2.531123         1.856904        -2.009971
 C         2.187651         1.212056        -0.587479
 O         2.528463        -0.180348        -0.593735
 H         0.807075        -0.298949         1.421414
 H        -0.611739         0.520017         0.649360
 H        -0.321616        -1.182042         0.216371
 H         0.503228        -0.954194        -2.435719
 H        -0.469545         0.647551        -2.119236
 H         0.527763         1.032294        -4.903305
 H         1.819314         2.425779        -4.740336
 H         3.585580         1.724751        -2.242291
 H         2.303756         2.909035        -2.143706
 H         2.362529         1.857529         0.353256
