19
Iteration:  4088charge 0 multiplicity 1
 C         0.086669        -0.109208         0.318679
 C         1.164356         0.243256        -0.773048
 C         0.892235        -0.109797        -2.208732
 C         1.831802         0.865123        -2.987519
 C         1.236040         1.522010        -4.201184
 O         2.242814         0.443436        -4.265173
 C         2.628109         1.788608        -1.952606
 C         2.122917         1.280974        -0.638536
 O         2.532947        -0.131595        -0.373396
 H        -0.789755        -0.603785        -0.049371
 H         0.508393        -0.393103         1.231595
 H        -0.482627         0.873170         0.697589
 H         1.049881        -1.094851        -2.456476
 H        -0.156396         0.349164        -2.505895
 H         0.251005         1.162347        -4.265048
 H         1.553653         2.460232        -4.605849
 H         3.699694         1.803615        -2.269949
 H         2.305672         2.894702        -2.088526
 H         1.960239         2.101698         0.224467
