19
Iteration:  2233charge 0 multiplicity 1
 C         0.110210        -0.228704         0.314065
 C         1.156765         0.160668        -0.625647
 C         0.723820         0.113111        -2.134945
 C         1.730339         0.989721        -3.040838
 C         1.375285         1.453131        -4.364340
 O         2.293209         0.377693        -4.157259
 C         2.550783         1.756906        -2.018010
 C         2.167025         1.286802        -0.610263
 O         2.567428        -0.043641        -0.425969
 H        -0.980954         0.129976        -0.055715
 H         0.172712        -1.402142         0.484036
 H         0.307206         0.255141         1.225957
 H         0.390693        -0.919164        -2.478949
 H        -0.289287         0.609934        -2.161539
 H         0.519420         1.107900        -4.943216
 H         1.799554         2.431365        -4.651219
 H         3.662296         1.510173        -2.099152
 H         2.471942         2.850302        -2.054392
 H         2.261328         2.023377         0.209540
