19
Iteration:  2474
 C         0.236615        -0.035832         0.495884
 C         1.114346         0.152810        -0.709769
 C         0.687240         0.093660        -2.216673
 C         1.674066         0.963022        -2.992841
 C         1.463350         1.320077        -4.368124
 O         2.429083         0.390649        -4.028897
 C         2.359408         1.954467        -1.945712
 C         2.133624         1.223592        -0.649420
 O         2.559882        -0.203187        -0.655552
 H        -0.453184         0.889099         0.439254
 H        -0.430375        -0.934270         0.648741
 H         0.718329         0.090211         1.375084
 H         0.696271        -0.945911        -2.720942
 H        -0.379284         0.338168        -2.143396
 H         0.602265         0.885770        -4.927519
 H         1.720377         2.335410        -4.735740
 H         3.444075         2.043197        -2.163527
 H         1.783773         2.871440        -2.144859
 H         2.310388         1.680447         0.342934
