19
Iteration:  2203
 C         0.143874        -0.238946         0.322861
 C         1.114008         0.272449        -0.728255
 C         0.813394         0.072789        -2.234509
 C         1.775942         1.010011        -2.984904
 C         1.336968         1.456509        -4.245851
 O         2.223557         0.359015        -4.224715
 C         2.672632         1.725858        -2.013919
 C         2.144033         1.290807        -0.559495
 O         2.430674        -0.039873        -0.393024
 H        -0.899124        -0.301245         0.195717
 H         0.635616        -1.254398         0.642723
 H         0.345296         0.504433         1.037600
 H         1.069512        -1.024416        -2.491211
 H        -0.225246         0.300586        -2.483414
 H         0.357220         1.129441        -4.702916
 H         1.733735         2.468132        -4.482700
 H         3.765057         1.444821        -2.191902
 H         2.559587         2.848608        -2.123060
 H         2.025770         2.028309         0.194457
