19
Iteration:  4104charge 0 multiplicity 1
 C         0.125084        -0.006177         0.248719
 C         1.109200         0.249556        -0.771310
 C         0.914027        -0.104000        -2.205613
 C         1.760165         0.897018        -2.943564
 C         1.240499         1.495635        -4.153066
 O         2.248267         0.441530        -4.226942
 C         2.563137         1.799194        -2.013596
 C         2.245371         1.273989        -0.619773
 O         2.446429        -0.137599        -0.384532
 H        -0.405280        -0.947949        -0.058533
 H         0.693856        -0.496814         1.128207
 H        -0.460730         0.806660         0.513440
 H         1.379046        -1.174553        -2.367293
 H        -0.098297        -0.123232        -2.543790
 H         0.269484         1.304959        -4.716845
 H         1.652493         2.528482        -4.361404
 H         3.676761         1.726507        -2.103026
 H         2.111582         2.766182        -2.050139
 H         2.422977         1.807967         0.223628
