19
Iteration:   311
 C        -0.142372         0.403653        -0.058502
 C         1.098746         0.240205        -0.924806
 C         1.197430        -0.472888        -2.264965
 C         1.831992         0.733351        -2.968190
 C         1.060931         1.782040        -3.548086
 O         1.948735         0.932666        -4.364408
 C         2.959928         1.175378        -2.142641
 C         2.310891         1.118984        -0.831863
 O         2.472433        -0.156827        -0.035102
 H        -0.604590        -0.435041         0.491565
 H        -0.001972         1.225245         0.475437
 H        -1.080669         0.509857        -0.874086
 H         1.792272        -1.386595        -2.082656
 H         0.260167        -0.824230        -2.633515
 H         0.003524         1.721286        -3.847124
 H         1.414560         2.815039        -3.208543
 H         3.739058         0.380972        -2.261200
 H         3.454712         2.137375        -2.201049
 H         2.316100         2.005019        -0.212528
