19
Iteration:  2477
 C         0.230110        -0.015958         0.496415
 C         1.112534         0.149837        -0.700867
 C         0.677568         0.075279        -2.215717
 C         1.668355         0.962838        -3.022635
 C         1.444839         1.329004        -4.376465
 O         2.443559         0.395608        -4.041784
 C         2.365464         1.963459        -1.957511
 C         2.138738         1.213649        -0.636341
 O         2.561458        -0.210439        -0.638742
 H        -0.437412         0.798764         0.455848
 H        -0.498802        -0.910007         0.591171
 H         0.818446         0.040009         1.462974
 H         0.694305        -0.970127        -2.653753
 H        -0.408512         0.304049        -2.142059
 H         0.638092         0.869627        -4.935467
 H         1.747500         2.322633        -4.747761
 H         3.431997         2.071226        -2.114209
 H         1.843344         2.968422        -2.024890
 H         2.298754         1.720142         0.331280
