19
Iteration:  3689charge 0 multiplicity 1
 C         0.085144        -0.270519         0.370901
 C         1.109044         0.227837        -0.675433
 C         0.669414         0.121567        -2.100190
 C         1.705696         0.953140        -2.977079
 C         1.402883         1.466046        -4.366809
 O         2.340486         0.451614        -4.142501
 C         2.580542         1.724035        -2.099231
 C         2.271325         1.322593        -0.618888
 O         2.475306        -0.094437        -0.449585
 H         0.186610        -1.410104         0.470857
 H         0.137511         0.203134         1.348550
 H        -0.861869         0.037548         0.230137
 H         0.763399        -0.922896        -2.478101
 H        -0.394690         0.365183        -2.253301
 H         0.493894         1.071171        -4.873168
 H         1.726072         2.468445        -4.690971
 H         3.659992         1.467342        -2.176392
 H         2.566424         2.847876        -2.318279
 H         2.632360         1.946412         0.198769
