19
Iteration:  2756charge 0 multiplicity 1
 C         0.101896        -0.128845         0.455266
 C         1.107453         0.248176        -0.706661
 C         0.748600        -0.047464        -2.110373
 C         1.720514         0.943864        -3.061799
 C         1.381633         1.622763        -4.299279
 O         2.271696         0.433683        -4.243844
 C         2.589638         1.743036        -2.076556
 C         2.266711         1.288007        -0.600385
 O         2.440863        -0.174529        -0.417679
 H         0.734166        -0.920795         1.107764
 H        -0.219100         0.782734         0.992146
 H        -0.729578        -0.670396         0.035922
 H         0.900399        -1.049031        -2.546055
 H        -0.403931         0.090428        -2.308900
 H         0.458308         1.312263        -4.786040
 H         1.955815         2.519870        -4.581605
 H         3.643460         1.326421        -2.239484
 H         2.445836         2.821791        -2.123145
 H         2.661958         1.929215         0.211985
