19
Iteration:  4625charge 0 multiplicity 1
 C         0.212346        -0.084385         0.394995
 C         1.110973         0.169505        -0.732224
 C         0.757997        -0.126301        -2.225837
 C         1.620360         0.950167        -2.958676
 C         1.354137         1.490924        -4.260577
 O         2.361423         0.569883        -4.217057
 C         2.514242         1.732014        -2.021467
 C         2.202461         1.241487        -0.709573
 O         2.493522        -0.110926        -0.367220
 H         0.433014        -1.028819         1.028446
 H         0.147768         0.786953         1.067312
 H        -0.770988        -0.331257         0.114908
 H         0.978421        -1.240136        -2.412170
 H        -0.365530        -0.183584        -2.408689
 H         0.499585         1.450245        -4.990385
 H         1.855108         2.530974        -4.413487
 H         3.676390         1.769046        -2.174415
 H         2.171583         2.794684        -2.098413
 H         2.276945         1.951521         0.176683
