19
Iteration:  1940
 C         0.190883        -0.059102         0.435636
 C         1.088669         0.209636        -0.655308
 C         0.611203         0.179418        -2.172488
 C         1.676899         0.999544        -3.010116
 C         1.365170         1.344978        -4.452201
 O         2.467802         0.453464        -3.981488
 C         2.428273         1.861987        -1.954780
 C         2.280620         1.124495        -0.635534
 O         2.522331        -0.257624        -0.616654
 H        -0.466361        -0.962852         0.267681
 H         0.836145        -0.335237         1.431656
 H        -0.451883         0.813133         0.457811
 H         0.629515        -0.887633        -2.604606
 H        -0.362560         0.594335        -2.366494
 H         0.483698         0.977313        -5.019907
 H         1.764907         2.344638        -4.800458
 H         3.362329         2.120913        -2.452640
 H         1.953335         2.827780        -1.841785
 H         2.565866         1.757349         0.221543
