19
Iteration:  1997
 C         0.129636        -0.064576         0.292964
 C         1.071943         0.249535        -0.730994
 C         0.758628        -0.060975        -2.201986
 C         1.670201         0.961095        -2.901906
 C         1.322782         1.477343        -4.318027
 O         2.331043         0.441134        -4.113042
 C         2.582797         1.777070        -2.020778
 C         2.265101         1.255209        -0.608237
 O         2.521035        -0.147159        -0.464817
 H        -0.798466        -0.360442        -0.031637
 H         0.570383        -1.013563         0.793862
 H         0.031799         0.649782         1.228720
 H         0.885211        -1.159349        -2.421626
 H        -0.248431         0.104929        -2.530393
 H         0.294151         1.323465        -4.632521
 H         1.772904         2.436350        -4.632726
 H         3.480063         1.809861        -2.595144
 H         2.175891         2.772184        -1.907782
 H         2.443836         1.918306         0.226445
