19
Iteration:  2758
 C         0.093791        -0.137766         0.446301
 C         1.112617         0.264755        -0.710800
 C         0.741957        -0.049057        -2.134806
 C         1.713153         0.953999        -3.047566
 C         1.380186         1.621422        -4.309668
 O         2.275094         0.432436        -4.240866
 C         2.564468         1.723557        -2.067923
 C         2.289700         1.283783        -0.598376
 O         2.456158        -0.170574        -0.406109
 H         0.749183        -0.866592         1.134639
 H        -0.250491         0.778933         0.993471
 H        -0.702304        -0.599409         0.045397
 H         0.854685        -1.027121        -2.570618
 H        -0.315190         0.096507        -2.243197
 H         0.449812         1.332968        -4.808847
 H         1.948898         2.490132        -4.624683
 H         3.599354         1.334530        -2.226392
 H         2.417642         2.829251        -2.116117
 H         2.644195         1.835680         0.222686
