19
Iteration:  3653
 C         0.195664        -0.032345         0.321583
 C         1.118579         0.178047        -0.775562
 C         0.789422        -0.028048        -2.255471
 C         1.789027         0.933675        -2.954749
 C         1.391835         1.533911        -4.284295
 O         2.210583         0.376325        -4.167288
 C         2.524385         1.782912        -1.940541
 C         2.105071         1.250094        -0.599984
 O         2.534286        -0.140467        -0.397104
 H        -0.348250        -0.955724         0.287534
 H         0.914279         0.015789         1.031979
 H        -0.573991         0.740840         0.198360
 H         1.078837        -1.141307        -2.542936
 H        -0.274897         0.189920        -2.532017
 H         0.390478         1.285033        -4.634560
 H         1.789724         2.516448        -4.604760
 H         3.674283         1.780565        -2.019990
 H         2.149804         2.771506        -2.237440
 H         2.163560         1.920402         0.337940
