19
Iteration:  1589charge 0 multiplicity 1
 C        -0.053717         0.119007         0.174830
 C         1.186949         0.215420        -0.697035
 C         1.025170        -0.168321        -2.229308
 C         1.752570         0.933465        -2.984327
 C         1.078521         1.614469        -4.219604
 O         2.093893         0.649646        -4.279675
 C         2.791500         1.491943        -2.036374
 C         2.373379         1.175400        -0.659660
 O         2.486267        -0.181172        -0.145285
 H         0.039573         0.502659         1.280020
 H        -0.907407         0.694712        -0.308858
 H        -0.231762        -0.866452         0.122474
 H         1.409039        -1.183310        -2.164286
 H        -0.056700        -0.321855        -2.422480
 H         0.161017         1.155367        -4.571151
 H         1.284191         2.675251        -4.533752
 H         3.716734         1.041056        -2.397566
 H         2.921632         2.566594        -2.057029
 H         2.377487         1.989513         0.059339
