19
Iteration:  2941charge 0 multiplicity 1
 C         0.271987        -0.358789         0.287544
 C         1.134816         0.326848        -0.761713
 C         0.499024         0.562376        -2.060987
 C         1.589570         1.148502        -2.936773
 C         1.457109         1.207726        -4.423974
 O         2.439086         0.277617        -3.732243
 C         2.421959         1.929684        -1.978570
 C         2.326849         1.192590        -0.611326
 O         2.462234        -0.283830        -0.833992
 H         0.224090         0.067306         1.388840
 H        -0.791662        -0.403094        -0.060003
 H         0.706022        -1.317152         0.477074
 H         0.293626        -0.345001        -2.588980
 H        -0.315532         1.306237        -1.989707
 H         0.555352         0.631752        -4.720037
 H         1.855374         1.851688        -5.200067
 H         3.601179         1.796282        -2.131723
 H         2.183875         3.107443        -2.154082
 H         2.702263         1.614958         0.253664
