19
Iteration:  3933charge 0 multiplicity 1
 C         0.285041        -0.209095         0.509955
 C         1.086966         0.267333        -0.690508
 C         0.608384         0.255844        -2.167839
 C         1.668208         1.042034        -2.989472
 C         1.456406         1.367795        -4.394673
 O         2.449671         0.335638        -4.064357
 C         2.395130         1.888350        -1.964012
 C         2.183968         1.194247        -0.586186
 O         2.489615        -0.226741        -0.706573
 H         0.249651        -1.277584         0.822608
 H         0.539280         0.421879         1.394668
 H        -0.775749        -0.062671         0.254751
 H         0.474007        -0.752334        -2.374334
 H        -0.415555         0.662832        -2.499525
 H         0.575930         0.945810        -4.854593
 H         1.782594         2.302974        -4.826989
 H         3.472058         2.013554        -2.062586
 H         2.044378         2.975125        -2.027010
 H         2.670449         1.665836         0.277472
