19
Iteration:   450charge 0 multiplicity 1
 C         0.122899         0.073150         0.392485
 C         1.093458         0.213056        -0.709061
 C         0.774483         0.044463        -2.224408
 C         1.775711         0.965278        -3.010007
 C         1.292972         1.717225        -4.238063
 O         2.191094         0.555896        -4.310161
 C         2.766378         1.481293        -1.998518
 C         2.267701         1.143755        -0.585362
 O         2.373609        -0.272969        -0.382389
 H        -0.068491        -1.064005         0.517284
 H         0.495095         0.469049         1.362355
 H        -0.836080         0.418590         0.114978
 H         0.947996        -1.010822        -2.489968
 H        -0.282792         0.215686        -2.475303
 H         0.302421         1.598139        -4.573370
 H         1.771305         2.600312        -4.633050
 H         3.639561         0.755371        -2.088300
 H         2.994008         2.501174        -2.087337
 H         2.720300         1.654808         0.287823
