19
Iteration:   546
 C         0.339008        -0.222375         0.469847
 C         1.053354         0.272555        -0.748605
 C         0.426035         0.616909        -2.114242
 C         1.559220         1.255597        -2.914854
 C         1.680509         1.275563        -4.379920
 O         2.356988         0.202760        -3.695557
 C         2.550818         1.952079        -1.941940
 C         2.364630         1.072026        -0.704095
 O         2.287442        -0.415854        -1.008135
 H         0.112850        -1.271571         0.122815
 H         1.105646        -0.328045         1.382925
 H        -0.571049         0.093514         0.783345
 H         0.079965        -0.218928        -2.735467
 H        -0.457534         1.315330        -2.104108
 H         0.849324         1.016781        -5.073581
 H         2.220648         2.188503        -4.798500
 H         3.520736         1.870308        -2.376974
 H         2.009597         2.942932        -1.676906
 H         2.977866         1.442416         0.122200
