19
Iteration:  3625
 C         0.013604         0.047108         0.392230
 C         1.169036         0.197469        -0.663736
 C         0.834893        -0.085323        -2.191326
 C         1.678152         0.943271        -2.967500
 C         1.313167         1.463979        -4.333743
 O         2.349779         0.534987        -4.181459
 C         2.509457         1.811356        -2.026011
 C         2.248303         1.189057        -0.658206
 O         2.534862        -0.242766        -0.409417
 H        -0.633025        -0.845805         0.020463
 H         0.654213        -0.172465         1.348370
 H        -0.690982         1.002925         0.464733
 H         1.160370        -1.058077        -2.457580
 H        -0.221195        -0.123008        -2.450054
 H         0.438038         1.067367        -4.887196
 H         1.520724         2.528550        -4.504473
 H         3.564475         1.751313        -2.291696
 H         2.308381         2.878817        -2.222657
 H         2.400258         1.810800         0.199283
