19
Iteration:   592
 C         0.325582        -0.311404         0.368457
 C         1.147368         0.219204        -0.797128
 C         0.419638         0.717155        -2.104777
 C         1.602252         1.185958        -2.887357
 C         1.704374         1.237013        -4.313558
 O         2.255653         0.086957        -3.719287
 C         2.461911         2.066506        -1.906349
 C         2.277429         1.115982        -0.728869
 O         2.475354        -0.347985        -1.001940
 H        -0.748763        -0.615518         0.008274
 H         0.685165        -1.081786         1.052629
 H         0.117134         0.490454         1.002013
 H        -0.242258        -0.018721        -2.606188
 H        -0.265312         1.529305        -1.751832
 H         0.854623         1.093763        -4.937536
 H         2.437914         1.936987        -4.757700
 H         3.513163         2.016658        -2.267025
 H         1.919192         2.999176        -1.682169
 H         2.620204         1.365751         0.289898
