19
Iteration:  3905charge 0 multiplicity 1
 C         0.351156        -0.261638         0.406055
 C         1.092408         0.194418        -0.854540
 C         0.549795         0.267397        -2.196946
 C         1.655354         1.020167        -2.915778
 C         1.531521         1.360437        -4.311865
 O         2.350469         0.232475        -3.883302
 C         2.444526         1.972005        -1.981335
 C         2.164761         1.265465        -0.625864
 O         2.503052        -0.152148        -0.727439
 H         0.186949        -1.340707         0.444708
 H         1.009510         0.074456         1.165101
 H        -0.761679         0.066116         0.542813
 H        -0.062213        -0.641888        -2.546927
 H        -0.248376         0.952859        -2.297415
 H         0.633548         0.938105        -4.793553
 H         2.010265         2.285238        -4.688939
 H         3.509271         2.236391        -2.199504
 H         2.047949         2.960756        -2.126745
 H         2.397041         1.677658         0.416070
