19
Iteration:    19
 C         0.248964        -0.233824         0.349820
 C         1.124794         0.242820        -0.786610
 C         0.498234         0.594067        -2.126600
 C         1.651919         1.182399        -2.924842
 C         1.563089         1.350390        -4.397265
 O         2.240452         0.180415        -3.820723
 C         2.538230         1.936807        -1.908093
 C         2.358406         1.084117        -0.659159
 O         2.464106        -0.376531        -0.827815
 H         0.103189        -1.312757         0.272055
 H         0.613733        -0.082876         1.461956
 H        -0.706705         0.205983         0.221616
 H         0.003640        -0.233949        -2.702424
 H        -0.253954         1.384986        -1.922814
 H         0.623440         1.189440        -4.913297
 H         2.289391         2.026488        -4.832479
 H         3.582164         2.123625        -2.185090
 H         1.916754         2.771910        -1.542760
 H         2.602054         1.490343         0.330835
