19
Iteration:    76charge 0 multiplicity 1
 C         0.371643        -0.498794         0.305607
 C         1.063235         0.357054        -0.793417
 C         0.381029         0.778225        -2.098858
 C         1.599771         1.256183        -2.897850
 C         1.699699         1.216110        -4.329136
 O         2.240299         0.132937        -3.525049
 C         2.535740         1.980680        -2.007934
 C         2.374175         1.109361        -0.664273
 O         2.309311        -0.304871        -1.046679
 H         0.563583        -1.545254         0.123683
 H         0.859026        -0.027881         1.295176
 H        -0.648431        -0.368884         0.407720
 H        -0.104539        -0.013958        -2.706061
 H        -0.352661         1.599555        -1.984308
 H         0.865810         1.198804        -4.921379
 H         2.566639         1.642314        -4.737961
 H         3.498603         1.849840        -2.457631
 H         2.532605         3.065838        -1.878688
 H         2.956243         1.277948         0.222364
