19
Iteration:  3573
 C         0.152248        -0.030339         0.331699
 C         1.144395         0.163310        -0.794784
 C         0.840068         0.011024        -2.213575
 C         1.793884         1.026960        -2.988345
 C         1.196750         1.444212        -4.238105
 O         2.357138         0.458236        -4.144977
 C         2.568887         1.783398        -1.970995
 C         2.186313         1.169115        -0.651208
 O         2.450989        -0.191526        -0.414275
 H        -0.224965        -0.974367         0.364433
 H         0.570996         0.259460         1.361844
 H        -0.551771         0.877297         0.227058
 H         0.895685        -1.010148        -2.651111
 H        -0.284620         0.217682        -2.312225
 H         0.200885         1.110939        -4.544073
 H         1.585281         2.300307        -4.767239
 H         3.653214         1.774584        -2.146518
 H         2.321860         2.823663        -2.067634
 H         2.167770         1.856882         0.170428
