19
Iteration:  4763
 C         0.317749        -0.210008         0.409407
 C         1.140694         0.210065        -0.791393
 C         0.477131         0.213052        -2.197317
 C         1.654613         1.011530        -2.928587
 C         1.557455         1.461725        -4.340557
 O         2.372060         0.258268        -3.906712
 C         2.369559         2.005515        -1.921940
 C         2.290084         1.158310        -0.686010
 O         2.465405        -0.226616        -0.730032
 H         0.452669         0.421808         1.302722
 H        -0.793391        -0.237306         0.141613
 H         0.804733        -1.172573         0.705173
 H         0.056125        -0.734601        -2.596601
 H        -0.428021         0.789329        -2.202177
 H         0.692080         1.231093        -4.924901
 H         2.054431         2.342628        -4.742369
 H         3.381233         2.256030        -2.203717
 H         1.891340         3.036914        -1.765871
 H         2.654249         1.667716         0.329979
