19
Iteration:  2466charge 0 multiplicity 1
 C         0.214251        -0.048155         0.455404
 C         1.164007         0.146629        -0.781662
 C         0.691939         0.126608        -2.178723
 C         1.676046         0.987760        -2.845614
 C         1.459214         1.327398        -4.369711
 O         2.426235         0.338501        -3.975921
 C         2.335685         1.869677        -1.965996
 C         2.127816         1.239636        -0.663769
 O         2.534730        -0.150244        -0.711685
 H        -0.505015         0.707478         0.420259
 H        -0.152128        -1.167660         0.580517
 H         0.824547         0.250740         1.419180
 H         0.727353        -0.890007        -2.700160
 H        -0.253586         0.701616        -2.448767
 H         0.516977         1.004804        -4.809792
 H         1.863886         2.306480        -4.715528
 H         3.327433         2.084564        -2.331843
 H         1.720461         2.809954        -2.132796
 H         2.383445         1.698024         0.303145
