19
Iteration:  4590charge 0 multiplicity 1
 C         0.122405        -0.181956         0.453578
 C         1.118938         0.160007        -0.693832
 C         0.781164        -0.061580        -2.178778
 C         1.763637         0.941166        -3.003278
 C         1.253760         1.454709        -4.301670
 O         2.351688         0.561645        -4.314524
 C         2.656738         1.721161        -2.001871
 C         2.045395         1.271473        -0.638859
 O         2.517500        -0.053119        -0.388836
 H         0.147239        -1.243398         0.623621
 H         0.553763         0.258485         1.406026
 H        -0.811225         0.278039         0.190992
 H         0.970457        -1.135420        -2.562692
 H        -0.227023         0.326521        -2.512178
 H         0.288932         1.103677        -4.697518
 H         1.622113         2.481341        -4.527864
 H         3.745440         1.543483        -2.026808
 H         2.532561         2.837235        -2.068411
 H         2.217132         2.078254         0.183540
