19
Iteration:  1310
 C        -0.063432        -0.057544         0.222861
 C         1.188621         0.240196        -0.762437
 C         0.849780         0.027116        -2.133680
 C         1.753459         0.861210        -2.941574
 C         1.255525         1.545398        -4.145069
 O         2.134825         0.390068        -4.216603
 C         2.747923         1.746237        -1.985416
 C         2.308272         1.235765        -0.603205
 O         2.541844        -0.118674        -0.460566
 H         0.091360         0.229788         1.240750
 H        -0.828021         0.643891        -0.163747
 H        -0.428663        -1.164089         0.095774
 H         1.117662        -1.042782        -2.327654
 H        -0.210813         0.181428        -2.477825
 H         0.270497         1.317998        -4.478155
 H         1.615338         2.540677        -4.429896
 H         3.767382         1.365465        -2.109819
 H         2.565413         2.855025        -2.201290
 H         2.582866         1.868748         0.251913
