19
Iteration:  4449charge 0 multiplicity 1
 C         0.192326        -0.237568         0.432734
 C         1.165807         0.241303        -0.678858
 C         0.599468         0.100138        -2.184500
 C         1.653026         0.969124        -2.976660
 C         1.466047         1.401305        -4.386080
 O         2.357751         0.316284        -4.090836
 C         2.387348         1.940364        -1.932305
 C         2.234220         1.268359        -0.609141
 O         2.564154        -0.132252        -0.606554
 H         0.521864        -1.231241         0.660418
 H         0.382730         0.396337         1.335404
 H        -0.815061        -0.179768         0.140681
 H         0.625341        -0.781524        -2.702229
 H        -0.311012         0.584072        -2.283135
 H         0.720010         1.085204        -5.043750
 H         1.897919         2.292016        -4.726023
 H         3.414329         2.227914        -2.205898
 H         1.800789         2.890096        -1.895557
 H         2.487523         1.891096         0.277751
