19
Iteration:  2468charge 0 multiplicity 1
 C         0.208969        -0.050601         0.460933
 C         1.151405         0.149553        -0.764351
 C         0.697556         0.112496        -2.192570
 C         1.676396         0.982071        -2.873245
 C         1.463844         1.323723        -4.375841
 O         2.424191         0.354739        -3.992155
 C         2.341969         1.892182        -1.953749
 C         2.126690         1.237468        -0.663983
 O         2.542194        -0.165662        -0.696538
 H        -0.429715         0.765969         0.431622
 H        -0.201100        -1.079611         0.615476
 H         0.828244         0.247871         1.509195
 H         0.727361        -0.820836        -2.694716
 H        -0.311226         0.615837        -2.369971
 H         0.549996         0.982653        -4.834871
 H         1.796200         2.309238        -4.710501
 H         3.353164         2.057745        -2.296238
 H         1.717598         2.783804        -2.197342
 H         2.362208         1.662006         0.300580
