19
Iteration:  4129charge 0 multiplicity 1
 C         0.012115         0.009346         0.397861
 C         1.165013         0.189750        -0.650079
 C         0.898283        -0.124526        -2.174395
 C         1.649316         0.978314        -3.018625
 C         1.252042         1.518606        -4.358419
 O         2.311983         0.553855        -4.185073
 C         2.557488         1.750021        -2.021026
 C         2.223623         1.186974        -0.671654
 O         2.580851        -0.172114        -0.392576
 H        -0.242480        -1.039313         0.166446
 H         0.165221         0.092964         1.439464
 H        -0.867767         0.636487         0.061314
 H         1.340864        -1.178194        -2.457283
 H        -0.193585        -0.092658        -2.329518
 H         0.370206         1.134849        -4.852242
 H         1.558295         2.536542        -4.585981
 H         3.519430         1.350288        -2.028444
 H         2.463016         2.826207        -2.068813
 H         2.362049         1.848555         0.236794
