19
Iteration:  2932charge 0 multiplicity 1
 C         0.265356        -0.413478         0.275731
 C         1.122650         0.364355        -0.689229
 C         0.495604         0.562967        -2.099569
 C         1.612838         1.137078        -2.912595
 C         1.455618         1.172811        -4.427765
 O         2.412639         0.241579        -3.760451
 C         2.481749         1.950670        -1.927792
 C         2.380415         1.191159        -0.632201
 O         2.421777        -0.231903        -0.859232
 H         0.247571         0.304073         1.209219
 H        -0.784995        -0.550816        -0.098890
 H         0.650583        -1.322016         0.427033
 H         0.193499        -0.439779        -2.383805
 H        -0.475153         1.100146        -1.867117
 H         0.680857         0.686966        -5.030972
 H         1.898768         2.034966        -4.929579
 H         3.512425         2.077166        -2.443218
 H         2.130550         3.040359        -1.855324
 H         2.676979         1.644027         0.233563
