19
Iteration:  4337charge 0 multiplicity 1
 C         0.371087        -0.246140         0.473938
 C         1.129731         0.167518        -0.699628
 C         0.510292         0.347271        -2.143918
 C         1.581591         1.089002        -2.986827
 C         1.700243         1.234432        -4.445395
 O         2.441115         0.228432        -3.840998
 C         2.177306         2.026061        -1.907477
 C         2.159408         1.197189        -0.668333
 O         2.594002        -0.214566        -0.881914
 H        -0.341907        -1.044519         0.318251
 H         0.909885        -0.525913         1.339983
 H        -0.226516         0.734476         0.771254
 H        -0.066812        -0.532515        -2.624664
 H        -0.253548         1.079006        -1.967986
 H         0.895478         1.065672        -5.206168
 H         2.093329         2.253076        -4.784244
 H         3.068440         2.607699        -2.053177
 H         1.391930         2.853313        -1.660035
 H         2.274377         1.808416         0.339920
