19
Iteration:  2057charge 0 multiplicity 1
 C         0.189115        -0.152631         0.282084
 C         1.150154         0.209210        -0.777479
 C         0.771302        -0.016638        -2.248601
 C         1.713373         0.879157        -3.021044
 C         1.251540         1.493057        -4.231701
 O         2.281179         0.451482        -4.225465
 C         2.662448         1.625726        -2.018700
 C         2.076660         1.322390        -0.626121
 O         2.530853        -0.005376        -0.214663
 H        -0.550434         0.765019         0.419630
 H        -0.384337        -1.029447         0.048012
 H         0.802259        -0.185228         1.138456
 H         1.099506        -1.023784        -2.593038
 H        -0.226540         0.307119        -2.689559
 H         0.328551         1.240492        -4.766855
 H         1.655850         2.504205        -4.249173
 H         3.753367         1.387150        -2.304950
 H         2.544341         2.751526        -2.019718
 H         2.059510         2.143118         0.146532
