19
Iteration:  4926charge 0 multiplicity 1
 C         0.079561        -0.172014         0.430241
 C         1.180571         0.224576        -0.762990
 C         0.684423         0.149714        -2.182286
 C         1.700734         1.077808        -2.928095
 C         1.341862         1.261269        -4.288360
 O         2.402896         0.416693        -4.042963
 C         2.500981         1.959924        -1.892272
 C         2.233213         1.164125        -0.590761
 O         2.542030        -0.201165        -0.779290
 H         0.526587        -0.511763         1.338920
 H        -0.497674         0.760304         0.713232
 H        -0.643804        -0.964232         0.184827
 H         0.823778        -0.833302        -2.695246
 H        -0.390591         0.528832        -2.195199
 H         0.467738         0.774413        -4.700426
 H         1.552353         2.176893        -4.846644
 H         3.528401         2.143952        -2.178664
 H         2.104393         3.017805        -1.809468
 H         2.612539         1.791341         0.294980
