19
Iteration:  2681charge 0 multiplicity 1
 C        -0.036042        -0.022005         0.326029
 C         1.200421         0.232223        -0.652139
 C         0.840575        -0.085017        -2.142814
 C         1.668273         0.963550        -3.071804
 C         1.211775         1.536656        -4.295939
 O         2.289889         0.509638        -4.253390
 C         2.597956         1.732876        -2.034818
 C         2.331310         1.177180        -0.618340
 O         2.552994        -0.171758        -0.304473
 H        -0.427560        -1.158375         0.223052
 H         0.276215         0.363736         1.315602
 H        -0.827738         0.543453        -0.029192
 H         1.260491        -1.089135        -2.391000
 H        -0.166562         0.043925        -2.401593
 H         0.245172         1.216317        -4.730957
 H         1.579522         2.507009        -4.671669
 H         3.700337         1.569481        -2.302042
 H         2.397937         2.831017        -2.140655
 H         2.558404         1.663045         0.318526
