19
Iteration:  4205
 C         0.098721        -0.212238         0.387916
 C         1.111102         0.267854        -0.638324
 C         0.764838        -0.043307        -2.215700
 C         1.600222         1.024483        -2.958612
 C         1.427776         1.508640        -4.289238
 O         2.248799         0.396031        -4.197548
 C         2.618105         1.821233        -1.990999
 C         2.183438         1.286870        -0.595249
 O         2.538384        -0.106883        -0.528158
 H         0.299400        -1.282290         0.614330
 H         0.068386         0.454963         1.183152
 H        -0.974240        -0.145117        -0.033269
 H         1.224654        -1.108171        -2.323886
 H        -0.260433        -0.028941        -2.277782
 H         0.521087         1.278462        -4.879300
 H         2.046106         2.392012        -4.553548
 H         3.524540         1.390834        -2.302981
 H         2.526384         2.923293        -1.983795
 H         2.624416         1.982013         0.151863
