19
Iteration:   954
 C         0.043458         0.004018         0.322897
 C         1.039516         0.322869        -0.786657
 C         0.925187        -0.169805        -2.190619
 C         1.862697         0.887908        -2.981354
 C         1.201119         1.640840        -4.155407
 O         2.113672         0.572858        -4.317112
 C         2.887139         1.529585        -2.045819
 C         2.261852         1.258049        -0.627322
 O         2.340365        -0.134882        -0.314004
 H         0.355906         0.559617         1.367899
 H        -1.005501        -0.012233         0.076951
 H         0.195809        -1.063409         0.422241
 H         1.393208        -1.163336        -2.239512
 H        -0.131842        -0.166453        -2.433538
 H         0.281555         1.456314        -4.673522
 H         1.647521         2.632761        -4.278185
 H         3.779686         0.918621        -1.942816
 H         2.911332         2.513649        -2.434803
 H         2.494563         1.964860         0.183736
