19
Iteration:  1236charge 0 multiplicity 1
 C         0.172927         0.019610         0.482739
 C         1.091427         0.247571        -0.709418
 C         0.670986         0.026692        -2.099463
 C         1.702337         0.913837        -2.928392
 C         1.459546         1.466080        -4.254540
 O         2.406407         0.385208        -4.181483
 C         2.418797         1.829256        -1.957343
 C         2.192936         1.146158        -0.660404
 O         2.463955        -0.205431        -0.721705
 H         1.144303         0.259443         1.187696
 H        -0.411147         0.928772         0.762001
 H        -0.398224        -0.841489         0.618818
 H         0.793882        -0.971772        -2.514417
 H        -0.366143         0.184326        -2.399152
 H         0.586846         1.312379        -4.924515
 H         1.908279         2.512533        -4.422974
 H         3.461448         1.663193        -2.218165
 H         2.198209         2.861881        -1.973441
 H         2.497509         1.735490         0.230106
