19
Iteration:  3493
 C         0.247451        -0.214595         0.379698
 C         1.096307         0.216067        -0.789384
 C         0.632024         0.220225        -2.192260
 C         1.708725         1.081274        -2.995823
 C         1.385021         1.374952        -4.368197
 O         2.358777         0.368572        -4.129682
 C         2.605665         1.754901        -1.926883
 C         2.122981         1.275528        -0.579696
 O         2.491806        -0.142327        -0.520177
 H         0.260978        -1.274131         0.602447
 H         0.577221         0.218648         1.339015
 H        -0.882268        -0.032930         0.271280
 H         0.549108        -0.798993        -2.498205
 H        -0.324989         0.784384        -1.947554
 H         0.464057         0.888544        -4.671589
 H         1.662425         2.303826        -4.876594
 H         3.619754         1.483881        -2.120245
 H         2.375733         2.815703        -2.013374
 H         2.363749         1.813425         0.359258
