19
Iteration:  2545charge 0 multiplicity 1
 C         0.107063        -0.061284         0.259909
 C         1.161261         0.187597        -0.735610
 C         0.811533        -0.004108        -2.179973
 C         1.772283         0.924109        -2.923849
 C         1.291955         1.381730        -4.265383
 O         2.248982         0.374582        -4.183125
 C         2.571600         1.784909        -1.946159
 C         2.108218         1.342258        -0.578071
 O         2.599511        -0.042258        -0.497628
 H        -0.453579         0.779269         0.559522
 H        -0.596282        -0.807595         0.009289
 H         0.520061        -0.527365         1.295024
 H         0.991144        -1.038979        -2.337566
 H        -0.161223         0.175872        -2.698362
 H         0.325459         1.131255        -4.677240
 H         1.605127         2.317573        -4.701247
 H         3.647144         1.600264        -2.128935
 H         2.284558         2.833884        -1.978603
 H         2.229845         1.879151         0.360722
