19
Iteration:  1422
 C        -0.042762         0.152765         0.176518
 C         1.117959         0.228254        -0.809643
 C         1.101465        -0.149829        -2.192209
 C         1.863988         0.859893        -2.996500
 C         1.079028         1.632632        -3.967097
 O         2.102775         0.509306        -4.295139
 C         2.788204         1.613827        -2.021280
 C         2.251875         1.190558        -0.679279
 O         2.473796        -0.192412        -0.312391
 H         0.185595         0.608767         1.300706
 H        -0.785709         0.885968        -0.196205
 H        -0.585813        -0.731117         0.191456
 H         1.558131        -1.135261        -2.228114
 H         0.104721        -0.460055        -2.467038
 H         0.015297         1.401620        -4.211872
 H         1.418473         2.581194        -4.378051
 H         3.862349         1.440740        -2.023613
 H         2.640687         2.631390        -2.349030
 H         2.292866         1.688076         0.336223
