19
Iteration:  2454charge 0 multiplicity 1
 C         0.271611        -0.089283         0.381391
 C         1.109464         0.204727        -0.754451
 C         0.621800         0.161776        -2.191955
 C         1.658747         0.947961        -2.990682
 C         1.467183         1.336161        -4.272088
 O         2.422513         0.273445        -3.897914
 C         2.352974         1.941155        -1.972655
 C         2.192112         1.252433        -0.646989
 O         2.540017        -0.129625        -0.744467
 H        -0.744849         0.285113         0.297711
 H         0.054663        -1.248211         0.468407
 H         0.794617         0.188714         1.303201
 H         0.475049        -0.936316        -2.555604
 H        -0.428182         0.607283        -2.196613
 H         0.581297         1.005292        -4.820219
 H         1.998203         2.176093        -4.745518
 H         3.403701         2.114424        -2.244176
 H         1.869148         2.928103        -1.768141
 H         2.366121         1.835190         0.287400
