19
Iteration:  3896
 C         0.354938        -0.334709         0.364851
 C         1.103431         0.238778        -0.775575
 C         0.483351         0.328755        -2.189115
 C         1.581257         1.041585        -2.965323
 C         1.552750         1.343255        -4.375573
 O         2.359081         0.217367        -3.834800
 C         2.409680         1.972224        -1.959024
 C         2.180154         1.276085        -0.646768
 O         2.547906        -0.149773        -0.707476
 H         0.114821        -1.435663         0.321040
 H         0.867734        -0.078469         1.361838
 H        -0.456442         0.356867         0.391951
 H         0.357025        -0.734172        -2.647455
 H        -0.365737         0.953323        -2.093351
 H         0.671191         1.105893        -5.018760
 H         2.167991         2.185212        -4.776036
 H         3.483015         1.836965        -2.167942
 H         1.990583         2.965358        -2.043672
 H         2.520506         1.687106         0.290705
