19
Iteration:  1981charge 0 multiplicity 1
 C         0.135823        -0.023204         0.353714
 C         1.205209         0.197320        -0.770436
 C         0.753938         0.048014        -2.211553
 C         1.710057         0.950247        -2.970681
 C         1.291595         1.426328        -4.259085
 O         2.355820         0.441667        -4.074028
 C         2.472351         1.845645        -1.996452
 C         2.233825         1.191085        -0.664393
 O         2.525840        -0.223893        -0.494389
 H        -0.858728        -0.269965        -0.191892
 H         0.395936        -0.789550         1.136936
 H        -0.017169         0.881559         0.858296
 H         0.963243        -0.949324        -2.638658
 H        -0.301978         0.428544        -2.270076
 H         0.452287         0.912574        -4.778775
 H         1.578756         2.397751        -4.674880
 H         3.596849         1.967784        -2.053805
 H         1.980060         2.866114        -1.967519
 H         2.328143         1.760200         0.284264
