19
Iteration:  4302
 C         0.298402        -0.171733         0.410713
 C         1.153410         0.258228        -0.773681
 C         0.582127         0.141833        -2.185331
 C         1.457305         1.121149        -2.922543
 C         1.545099         1.311284        -4.341162
 O         2.455879         0.347505        -3.776467
 C         2.322679         1.964188        -1.979678
 C         2.230075         1.161607        -0.731066
 O         2.551052        -0.231352        -0.762837
 H        -0.592965        -0.691041        -0.039763
 H         0.843334        -0.685329         1.162991
 H        -0.109385         0.776787         0.851433
 H         0.668066        -0.888111        -2.686264
 H        -0.432266         0.580079        -2.285679
 H         0.756207         0.764049        -4.956155
 H         2.063074         2.304858        -4.607044
 H         3.322503         2.160008        -2.450588
 H         1.734024         2.914932        -1.836450
 H         2.422768         1.781772         0.135293
