19
Iteration:  3788charge 0 multiplicity 1
 C         0.311667        -0.179605         0.429466
 C         1.112498         0.237772        -0.745095
 C         0.542515         0.262688        -2.105483
 C         1.541008         1.027268        -2.976922
 C         1.587369         1.375038        -4.429923
 O         2.457662         0.359086        -3.814549
 C         2.305852         1.969206        -2.012604
 C         2.257333         1.136111        -0.756212
 O         2.463580        -0.252612        -0.677394
 H        -0.267630        -1.183754         0.304991
 H         1.136687        -0.253779         1.296137
 H        -0.405047         0.482001         0.863355
 H         0.489732        -0.845857        -2.440177
 H        -0.553907         0.592177        -2.271987
 H         0.838844         0.931206        -5.123365
 H         2.108377         2.243364        -4.896389
 H         3.322263         2.106045        -2.447639
 H         1.910090         3.046688        -2.028375
 H         2.632201         1.554000         0.161548
