19
Iteration:  3793charge 0 multiplicity 1
 C         0.298126        -0.220428         0.477666
 C         1.106856         0.210809        -0.749081
 C         0.528994         0.254599        -2.091135
 C         1.572753         1.092159        -2.963298
 C         1.587198         1.331800        -4.455693
 O         2.463777         0.367478        -3.816417
 C         2.307942         1.979188        -2.040784
 C         2.237416         1.148296        -0.722926
 O         2.462809        -0.255707        -0.710397
 H        -0.313172        -1.065284         0.442926
 H         1.120092        -0.353879         1.106073
 H        -0.429057         0.579586         0.836868
 H         0.526002        -0.731115        -2.444380
 H        -0.403576         0.687684        -2.319867
 H         0.791908         0.941067        -5.073223
 H         2.145583         2.143176        -4.900624
 H         3.309389         2.057736        -2.452414
 H         1.924073         2.975267        -1.953758
 H         2.681436         1.735704         0.116076
