19
Iteration:    31charge 0 multiplicity 1
 C         0.220462        -0.306192         0.281635
 C         1.150205         0.242892        -0.793266
 C         0.471517         0.720234        -2.103908
 C         1.645413         1.177436        -2.922699
 C         1.666927         1.299863        -4.383670
 O         2.207558         0.156875        -3.747425
 C         2.427841         1.978249        -1.894396
 C         2.368248         1.035854        -0.595804
 O         2.467972        -0.341351        -0.897634
 H         0.283605        -1.388176         0.275898
 H         0.817368         0.199784         1.271652
 H        -0.731973         0.005939         0.346686
 H        -0.083149        -0.175536        -2.542836
 H        -0.278392         1.467798        -1.792512
 H         0.779531         0.960352        -4.812029
 H         2.135130         1.993566        -5.031313
 H         3.435722         2.120980        -2.289203
 H         2.266992         3.066977        -2.026764
 H         3.003116         1.227301         0.248486
