19
Iteration:  1976
 C         0.135194        -0.024016         0.318756
 C         1.156323         0.161154        -0.716795
 C         0.769312         0.069861        -2.155275
 C         1.708759         0.963657        -2.940302
 C         1.269700         1.400833        -4.314742
 O         2.407374         0.422533        -4.119507
 C         2.439669         1.899066        -1.999277
 C         2.222289         1.178693        -0.629160
 O         2.550588        -0.244905        -0.522340
 H        -0.786487        -0.282325        -0.076368
 H         0.378804        -0.621935         1.201331
 H         0.039131         1.033152         0.911225
 H         0.852352        -0.822231        -2.810534
 H        -0.243431         0.451360        -2.276665
 H         0.385534         1.016549        -4.786781
 H         1.600606         2.401623        -4.606329
 H         3.504383         1.865743        -2.114423
 H         2.079606         2.910278        -1.845767
 H         2.305824         1.726126         0.295580
