19
Iteration:  2432charge 0 multiplicity 1
 C         0.264904        -0.304421         0.395020
 C         1.114141         0.276349        -0.678388
 C         0.528155         0.294628        -2.088909
 C         1.562045         1.079132        -2.988033
 C         1.592076         1.224962        -4.454690
 O         2.363661         0.275090        -3.882898
 C         2.396363         1.960744        -2.033689
 C         2.246335         1.304217        -0.617155
 O         2.521543        -0.143977        -0.683547
 H        -0.799135        -0.295769         0.206057
 H         0.470739        -1.466555         0.324603
 H         0.585474         0.024318         1.381504
 H         0.522926        -0.809644        -2.459000
 H        -0.424053         0.808817        -2.363310
 H         0.778635         0.923990        -5.140251
 H         2.114000         2.114047        -4.884081
 H         3.413134         2.077986        -2.433075
 H         1.977683         2.985054        -1.886519
 H         2.598776         1.833733         0.294617
