19
Iteration:  2928
 C         0.256904        -0.394082         0.283485
 C         1.116372         0.358843        -0.684189
 C         0.489464         0.537101        -2.089795
 C         1.619944         1.130491        -2.930619
 C         1.483717         1.159688        -4.406266
 O         2.380248         0.238819        -3.776916
 C         2.517107         1.973579        -1.933691
 C         2.372590         1.192253        -0.650015
 O         2.420060        -0.205418        -0.863422
 H         0.209237         0.221004         1.176919
 H        -0.743793        -0.585978        -0.105004
 H         0.699461        -1.474875         0.478116
 H         0.094425        -0.450171        -2.369482
 H        -0.444024         1.079444        -2.009896
 H         0.694067         0.715913        -5.038477
 H         1.969278         2.071519        -4.789165
 H         3.489541         2.084231        -2.495881
 H         2.030604         3.046251        -1.629237
 H         2.774794         1.582741         0.343104
