19
Iteration:   157charge 0 multiplicity 1
 C         0.108510         0.009060         0.501806
 C         1.045783         0.290211        -0.725195
 C         0.615240         0.122023        -2.199373
 C         1.662651         1.037472        -2.958680
 C         1.454567         1.573666        -4.345081
 O         2.334738         0.452867        -4.073828
 C         2.620309         1.773579        -1.987545
 C         2.408260         1.026561        -0.632862
 O         2.414414        -0.394362        -0.650571
 H        -0.728356        -0.686620         0.242931
 H         0.576893        -0.514009         1.210102
 H        -0.217012         1.057553         0.957648
 H         0.609077        -0.904438        -2.596526
 H        -0.348527         0.663729        -2.310618
 H         0.452166         1.287492        -4.809090
 H         1.845564         2.550569        -4.734969
 H         3.656116         1.577772        -2.401639
 H         2.472268         2.824293        -1.792284
 H         2.561739         1.528378         0.365241
