19
Iteration:   803
 C        -0.074207         0.145420         0.069040
 C         1.156214         0.227607        -0.751681
 C         1.209143        -0.356490        -2.188636
 C         1.727749         0.790827        -2.994671
 C         1.203042         1.769043        -3.860431
 O         1.965327         0.752823        -4.478758
 C         2.856131         1.275706        -2.157095
 C         2.218389         1.169841        -0.719082
 O         2.422686         0.028979        -0.010581
 H         0.046132         0.735030         0.961219
 H        -0.794025         0.616271        -0.459915
 H        -0.322384        -0.944079         0.291567
 H         1.933785        -1.191316        -2.319231
 H         0.279662        -0.848140        -2.560606
 H         0.228233         1.597513        -4.227143
 H         1.598267         2.753747        -3.835815
 H         3.691466         0.527137        -1.924534
 H         3.232340         2.268801        -2.403729
 H         2.177221         2.047983        -0.076138
