19
Iteration:  2818
 C         0.136196        -0.045454         0.351576
 C         1.126686         0.277589        -0.746063
 C         0.643078         0.201999        -2.176239
 C         1.731185         1.007967        -2.906894
 C         1.306804         1.378665        -4.297774
 O         2.365203         0.394484        -4.075138
 C         2.542928         1.816387        -1.919012
 C         2.267150         1.114478        -0.620926
 O         2.535753        -0.249593        -0.676054
 H         0.479115         0.159079         1.320067
 H        -0.750967         0.556772         0.270850
 H        -0.149740        -1.194253         0.516638
 H         0.872963        -0.802722        -2.561768
 H        -0.376558         0.557448        -2.174093
 H         0.479185         0.908375        -4.840885
 H         1.577681         2.391245        -4.665488
 H         3.602362         1.975683        -2.142317
 H         2.127931         2.854776        -1.949657
 H         2.530276         1.571593         0.406239
