19
Iteration:   775
 C        -0.029630         0.137984         0.141863
 C         1.157750         0.204850        -0.764325
 C         1.085803        -0.291716        -2.227461
 C         1.858324         0.831761        -3.024028
 C         1.094040         1.735873        -3.960159
 O         2.004533         0.691856        -4.394594
 C         2.974522         1.368533        -2.053128
 C         2.222910         1.207274        -0.689987
 O         2.384032        -0.105044        -0.104625
 H        -0.144374         1.135000         0.673054
 H        -0.990573         0.186382        -0.584732
 H        -0.000495        -0.645489         0.912166
 H         1.638231        -1.230389        -2.353654
 H         0.080448        -0.461196        -2.623762
 H         0.088970         1.356437        -4.302147
 H         1.283149         2.816538        -4.306732
 H         3.930814         0.958841        -1.909156
 H         3.216835         2.461478        -2.249307
 H         2.157470         2.023746         0.044910
