19
Iteration:  4054
 C         0.105173        -0.151764         0.338199
 C         1.174434         0.245064        -0.694245
 C         0.830240        -0.055632        -2.157952
 C         1.622612         0.969161        -3.022273
 C         1.263544         1.502498        -4.366107
 O         2.335064         0.524602        -4.199259
 C         2.597222         1.642234        -2.031381
 C         2.166184         1.350712        -0.627660
 O         2.560834        -0.127865        -0.301966
 H        -0.627904        -0.810463        -0.094101
 H         0.518296        -0.708053         1.135026
 H        -0.366253         0.846331         0.652352
 H         0.940961        -1.112659        -2.397564
 H        -0.273713         0.134983        -2.379458
 H         0.380018         1.161197        -4.834010
 H         1.531739         2.470536        -4.718467
 H         3.519731         1.120931        -2.303794
 H         2.738293         2.746000        -2.152618
 H         2.047238         2.102929         0.236790
