19
Iteration:  3807
 C         0.305342        -0.250721         0.577732
 C         1.098478         0.189667        -0.696715
 C         0.550519         0.299133        -2.231680
 C         1.572520         1.136986        -2.998205
 C         1.577847         1.215964        -4.453589
 O         2.474892         0.333269        -3.847155
 C         2.380639         1.987015        -1.951476
 C         2.187965         1.240783        -0.650881
 O         2.479718        -0.230187        -0.841358
 H        -0.440785        -1.034244         0.262000
 H         0.833730        -0.559046         1.443320
 H        -0.224928         0.663237         1.007285
 H         0.290911        -0.673530        -2.805984
 H        -0.415120         0.752094        -2.038643
 H         0.712290         0.753916        -4.983295
 H         1.950131         2.125848        -4.960306
 H         3.428206         2.214246        -2.232586
 H         1.898011         2.962219        -1.824855
 H         2.469959         1.636181         0.383988
