19
Iteration:  1286charge 0 multiplicity 1
 C         0.075157         0.031447         0.304792
 C         1.193688         0.222478        -0.718957
 C         0.805647         0.032960        -2.127843
 C         1.667356         1.038928        -2.971660
 C         1.241277         1.451387        -4.369062
 O         2.287427         0.501595        -4.229557
 C         2.636461         1.716404        -2.028582
 C         2.249906         1.136894        -0.550050
 O         2.536860        -0.255027        -0.330690
 H         0.404924         0.063992         1.274951
 H        -0.614183         0.892382         0.170016
 H        -0.421241        -1.032594        -0.034292
 H         0.851047        -1.050378        -2.444510
 H        -0.211287         0.441462        -2.418290
 H         0.219286         1.144675        -4.646743
 H         1.524710         2.361770        -4.852729
 H         3.644438         1.333417        -2.345939
 H         2.403322         2.861503        -2.109718
 H         2.432343         1.791228         0.296003
