19
Iteration:  1172charge 0 multiplicity 1
 C         0.261987        -0.389728         0.319099
 C         1.134510         0.239425        -0.752766
 C         0.438309         0.559884        -2.111092
 C         1.631501         1.098895        -2.940597
 C         1.474945         1.197884        -4.462735
 O         2.371941         0.253472        -3.829770
 C         2.492566         1.950785        -1.964774
 C         2.293442         1.270819        -0.624028
 O         2.517769        -0.218172        -0.687635
 H         0.803536        -0.259288         1.452913
 H        -0.742399         0.008874         0.250464
 H         0.279975        -1.407408         0.216873
 H         0.070096        -0.341077        -2.613794
 H        -0.210240         1.433715        -2.122295
 H         0.484855         0.804798        -4.828818
 H         2.016606         1.804728        -5.284578
 H         3.545768         1.713494        -2.287840
 H         2.123970         3.006422        -1.989118
 H         2.517547         1.852094         0.314913
