19
Iteration:  4196
 C         0.077627        -0.151890         0.441098
 C         1.090954         0.206913        -0.632009
 C         0.834083        -0.044878        -2.150448
 C         1.713829         0.988612        -2.942117
 C         1.376815         1.521884        -4.306489
 O         2.270499         0.417047        -4.233033
 C         2.591132         1.766886        -1.973583
 C         2.226750         1.324459        -0.636822
 O         2.450787        -0.101827        -0.571095
 H         0.454152        -1.134012         0.718543
 H         0.047927         0.354594         1.366023
 H        -0.914024        -0.291263        -0.148580
 H         1.232414        -1.052289        -2.517772
 H        -0.247586        -0.062637        -2.495675
 H         0.424773         1.386024        -4.768462
 H         1.827613         2.448802        -4.633641
 H         3.609410         1.495434        -2.211982
 H         2.431547         2.881344        -2.039237
 H         2.505230         1.912320         0.380744
