19
Iteration:  1435
 C        -0.140552         0.187643         0.111972
 C         1.172423         0.183221        -0.726635
 C         1.141378        -0.227559        -2.228806
 C         1.879961         0.899741        -2.952030
 C         1.106462         1.614971        -3.991239
 O         1.994177         0.461085        -4.352241
 C         2.819858         1.670926        -1.994485
 C         2.275280         1.221522        -0.607158
 O         2.480881        -0.194337        -0.311316
 H         0.319424         0.296030         1.271456
 H        -0.864645         0.995280        -0.201361
 H        -0.587791        -0.757707         0.129304
 H         1.714837        -1.122011        -2.456537
 H         0.158655        -0.165204        -2.706477
 H         0.000062         1.361384        -4.010190
 H         1.445801         2.583074        -4.392396
 H         3.886715         1.440039        -2.179466
 H         2.783007         2.753838        -1.938231
 H         2.329242         2.056081         0.142863
