19
Iteration:  2482
 C         0.217602        -0.002658         0.512966
 C         1.133394         0.144441        -0.711876
 C         0.653488         0.026942        -2.190799
 C         1.647701         0.978242        -3.023808
 C         1.396682         1.361836        -4.422975
 O         2.488179         0.396348        -4.067145
 C         2.357610         1.960250        -1.983382
 C         2.153102         1.191571        -0.616394
 O         2.552874        -0.211137        -0.598930
 H        -0.553535         0.873491         0.543487
 H        -0.422582        -0.822380         0.388888
 H         0.895184        -0.060650         1.429659
 H         0.736373        -1.004649        -2.447937
 H        -0.397886         0.363454        -2.307223
 H         0.598024         0.853139        -4.988159
 H         1.833833         2.288145        -4.782399
 H         3.459362         2.140165        -2.111203
 H         2.035380         2.993845        -1.733717
 H         2.301341         1.797851         0.278193
