19
Iteration:   476
 C         0.084653        -0.019720         0.380522
 C         1.126022         0.295069        -0.713732
 C         0.659224         0.181697        -2.130792
 C         1.685018         1.053050        -2.947951
 C         1.440688         1.665081        -4.291825
 O         2.170902         0.382041        -4.134749
 C         2.763836         1.680904        -2.033325
 C         2.339068         1.112474        -0.676664
 O         2.426009        -0.393028        -0.520264
 H         0.228481        -1.064064         0.508510
 H         0.177137         0.456291         1.297734
 H        -1.052507        -0.095989        -0.022158
 H         0.642141        -0.865372        -2.488218
 H        -0.377984         0.512583        -2.146331
 H         0.443878         1.641695        -4.824783
 H         2.067911         2.451728        -4.747912
 H         3.854769         1.466746        -2.121242
 H         2.438486         2.738416        -1.864375
 H         2.691271         1.625383         0.234647
