19
Iteration:  3359charge 0 multiplicity 1
 C         0.257844        -0.367284         0.410453
 C         1.096609         0.307622        -0.684209
 C         0.524372         0.418497        -2.156721
 C         1.596648         1.095231        -2.957683
 C         1.495737         1.212115        -4.395936
 O         2.499637         0.216550        -3.777908
 C         2.387835         2.004693        -2.020376
 C         2.224955         1.272480        -0.638627
 O         2.495321        -0.160654        -0.833029
 H         0.110347        -1.415894        -0.085777
 H         0.795831        -0.640704         1.284621
 H        -0.636488         0.137655         0.752305
 H         0.194843        -0.578429        -2.439461
 H        -0.539825         0.959866        -2.134816
 H         0.657896         0.812065        -4.984922
 H         1.964015         2.090498        -4.828300
 H         3.382970         1.989285        -2.494737
 H         2.197340         3.034509        -1.786835
 H         2.799242         1.717182         0.193669
