19
Iteration:  2960charge 0 multiplicity 1
 C         0.253779        -0.314425         0.385699
 C         1.114845         0.186038        -0.774807
 C         0.493406         0.485373        -2.181421
 C         1.619222         1.168052        -2.885353
 C         1.476741         1.184324        -4.404508
 O         2.380565         0.267220        -3.795152
 C         2.530892         1.975862        -1.925546
 C         2.249326         1.169768        -0.701954
 O         2.506839        -0.220560        -0.807244
 H         0.539658         0.237263         1.256647
 H        -0.786981        -0.063132         0.194527
 H         0.439498        -1.475357         0.572494
 H        -0.004888        -0.395786        -2.655258
 H        -0.196459         1.231228        -1.818205
 H         0.620828         0.786920        -4.991005
 H         1.936530         2.076557        -4.861898
 H         3.525207         2.128123        -2.320414
 H         2.249498         3.057434        -1.805550
 H         2.472935         1.722329         0.302564
