19
Iteration:  2257charge 0 multiplicity 1
 C         0.180292        -0.145084         0.355326
 C         1.165763         0.244133        -0.679732
 C         0.606512         0.092743        -2.226568
 C         1.616404         0.996571        -2.990533
 C         1.450601         1.408770        -4.320014
 O         2.386390         0.382129        -4.041880
 C         2.450161         1.864107        -2.044687
 C         2.235152         1.265081        -0.673435
 O         2.541598        -0.173906        -0.444043
 H        -0.760019         0.456132         0.308579
 H         0.000743        -1.296042         0.090771
 H         0.610617        -0.112905         1.339907
 H         0.690321        -1.005853        -2.543125
 H        -0.469328         0.298996        -2.379672
 H         0.550858         0.985651        -4.822861
 H         1.808054         2.378048        -4.683811
 H         3.503019         1.807151        -2.473256
 H         2.153690         2.934655        -1.918894
 H         2.460772         1.828437         0.200797
