19
Iteration:  2550charge 0 multiplicity 1
 C         0.142505        -0.091488         0.266621
 C         1.163270         0.199099        -0.703950
 C         0.806215         0.021979        -2.221113
 C         1.778012         0.926155        -2.949799
 C         1.246338         1.409353        -4.261292
 O         2.251144         0.334214        -4.187399
 C         2.585014         1.784841        -1.892642
 C         2.090429         1.356162        -0.588515
 O         2.608847        -0.049214        -0.472614
 H        -0.593728         0.825645         0.487363
 H        -0.684636        -0.819789        -0.046521
 H         0.510045        -0.388838         1.166331
 H         1.089351        -1.071614        -2.397541
 H        -0.159470         0.126898        -2.702488
 H         0.273686         1.120028        -4.735780
 H         1.734108         2.391102        -4.537633
 H         3.622218         1.583130        -2.266847
 H         2.394846         2.862343        -2.201899
 H         2.167830         1.859235         0.388617
