19
Iteration:  2949charge 0 multiplicity 1
 C         0.273232        -0.298742         0.335296
 C         1.140617         0.248475        -0.740713
 C         0.503100         0.526594        -2.109708
 C         1.626971         1.168733        -2.964257
 C         1.481762         1.177007        -4.376799
 O         2.401189         0.312289        -3.743911
 C         2.473131         1.955824        -2.007700
 C         2.224094         1.197303        -0.644906
 O         2.503262        -0.272447        -0.817299
 H         0.326496         0.094361         1.314874
 H        -0.749463        -0.402216        -0.004773
 H         0.585369        -1.468392         0.381306
 H        -0.059264        -0.316290        -2.604138
 H        -0.256028         1.296161        -2.130611
 H         0.512642         0.698015        -4.628919
 H         1.926033         1.862933        -5.111729
 H         3.486519         1.736556        -2.337406
 H         2.182635         3.015066        -1.760826
 H         2.752669         1.465273         0.351378
