19
Iteration:  3190charge 0 multiplicity 1
 C         0.028022        -0.064761         0.223327
 C         1.203289         0.226120        -0.738347
 C         0.816306         0.045821        -2.066034
 C         1.666228         0.983140        -2.926751
 C         1.267660         1.391171        -4.296855
 O         2.332358         0.443072        -4.101740
 C         2.490841         1.787692        -2.010367
 C         2.341755         1.254217        -0.641561
 O         2.555452        -0.184696        -0.497794
 H        -0.631995        -0.855170        -0.076817
 H         0.366687        -0.475225         1.194903
 H        -0.510825         0.845885         0.439694
 H         0.941642        -0.983213        -2.572134
 H        -0.299588         0.295141        -2.228343
 H         0.374773         0.957152        -4.774486
 H         1.527174         2.430086        -4.578718
 H         3.505843         1.782623        -2.436288
 H         2.124859         2.819234        -1.835889
 H         2.486487         1.888103         0.323540
