19
Iteration:  3164
 C         0.123311        -0.159194         0.435675
 C         1.082196         0.285417        -0.709992
 C         0.702952         0.028112        -2.138256
 C         1.765447         0.948538        -2.995927
 C         1.290783         1.446654        -4.335183
 O         2.359073         0.494653        -4.217482
 C         2.575834         1.752516        -2.066951
 C         2.222473         1.261359        -0.614901
 O         2.514307        -0.158675        -0.434117
 H        -0.338957        -1.116483         0.318243
 H         0.699791        -0.307424         1.342922
 H        -0.723289         0.649673         0.648269
 H         0.967573        -0.933411        -2.549896
 H        -0.308271         0.230541        -2.437662
 H         0.385473         1.070773        -4.831447
 H         1.594378         2.467461        -4.558002
 H         3.595439         1.316372        -2.128806
 H         2.531491         2.926427        -2.160590
 H         2.319463         1.883796         0.268863
