19
Iteration:  2551charge 0 multiplicity 1
 C         0.141431        -0.095253         0.272413
 C         1.164860         0.205902        -0.702925
 C         0.810032         0.024737        -2.228080
 C         1.774367         0.925490        -2.956598
 C         1.239886         1.417218        -4.260398
 O         2.252750         0.326977        -4.187574
 C         2.588781         1.788440        -1.890001
 C         2.089638         1.353806        -0.588595
 O         2.607328        -0.051095        -0.466417
 H        -0.573488         0.802530         0.456747
 H        -0.690681        -0.837546        -0.071765
 H         0.524175        -0.366069         1.170923
 H         1.115838        -1.082160        -2.422568
 H        -0.192104         0.124460        -2.672274
 H         0.273675         1.120524        -4.732924
 H         1.746889         2.391850        -4.510410
 H         3.601646         1.589466        -2.257003
 H         2.424492         2.852721        -2.239707
 H         2.155669         1.867431         0.378626
