19
Iteration:  3880charge 0 multiplicity 1
 C         0.255393        -0.339568         0.398496
 C         1.169321         0.225680        -0.694539
 C         0.535668         0.353161        -2.076364
 C         1.499839         1.172149        -2.977812
 C         1.664407         1.267992        -4.483343
 O         2.314347         0.259303        -3.825950
 C         2.354919         1.880563        -1.999577
 C         2.251610         1.270769        -0.640568
 O         2.579611        -0.126215        -0.749580
 H         0.021162        -1.193281        -0.177367
 H         0.754301        -0.671638         1.252194
 H        -0.772741         0.086535         0.701702
 H         0.371436        -0.575032        -2.481692
 H        -0.551620         0.768915        -2.082916
 H         0.870961         0.900824        -5.102245
 H         2.248720         2.070646        -4.902285
 H         3.371363         1.985175        -2.385051
 H         2.077540         2.970280        -1.864761
 H         2.384736         1.880160         0.320864
