19
Iteration:  4635charge 0 multiplicity 1
 C         0.112749        -0.100892         0.406248
 C         1.136309         0.162677        -0.726625
 C         0.782291        -0.118490        -2.176645
 C         1.643029         0.928647        -2.976408
 C         1.357182         1.588185        -4.357174
 O         2.317740         0.493096        -4.145136
 C         2.516785         1.822939        -2.011436
 C         2.186573         1.215428        -0.651262
 O         2.559541        -0.141775        -0.442431
 H         0.456557        -0.925160         1.128735
 H        -0.018193         0.849861         0.989628
 H        -0.825185        -0.263705        -0.061632
 H         1.443936        -1.039409        -2.403429
 H        -0.345673        -0.103475        -2.377631
 H         0.454969         1.168155        -4.889253
 H         1.720617         2.639080        -4.618824
 H         3.589179         1.593721        -2.326114
 H         2.245063         2.899753        -2.040741
 H         2.274472         1.898853         0.302270
