19
Iteration:  3556charge 0 multiplicity 1
 C         0.113808        -0.031636         0.397316
 C         1.134849         0.175113        -0.767087
 C         0.817835         0.007730        -2.243010
 C         1.692639         0.956910        -2.977823
 C         1.384246         1.539635        -4.327264
 O         2.219861         0.364022        -4.189554
 C         2.578303         1.800084        -1.951637
 C         2.129237         1.256007        -0.567678
 O         2.567486        -0.170003        -0.442522
 H        -0.162006        -1.224879         0.419723
 H         0.642773         0.259301         1.263180
 H        -0.852704         0.342695         0.201342
 H         1.061519        -1.028578        -2.559632
 H        -0.183492         0.166797        -2.552565
 H         0.422073         1.230512        -4.769661
 H         1.775038         2.530803        -4.662361
 H         3.683694         1.744946        -2.105224
 H         2.350028         2.912427        -1.895676
 H         2.304131         1.833591         0.401670
