19
Iteration:  3514
 C         0.190349        -0.261825         0.391880
 C         1.099353         0.313187        -0.663789
 C         0.633626         0.116163        -2.227742
 C         1.659535         0.923772        -2.966983
 C         1.435318         1.532055        -4.327868
 O         2.302164         0.395342        -4.091905
 C         2.578002         1.744717        -2.097284
 C         2.217063         1.319312        -0.699925
 O         2.507321        -0.156852        -0.403647
 H         0.239559        -1.400924         0.536182
 H         0.373814         0.138604         1.377484
 H        -0.884873        -0.224824         0.127631
 H         0.646909        -0.917803        -2.475327
 H        -0.297072         0.567863        -2.177487
 H         0.674492         1.458713        -5.100706
 H         2.050727         2.447250        -4.373508
 H         3.601651         1.482502        -2.294594
 H         2.302192         2.762200        -2.407767
 H         2.431151         1.944271         0.203176
