19
Iteration:   400charge 0 multiplicity 1
 C        -0.068872         0.295923         0.137303
 C         1.204611         0.252980        -0.770836
 C         1.002735        -0.277059        -2.244246
 C         1.777398         0.777368        -2.997066
 C         1.132943         1.812037        -3.910149
 O         2.066646         0.730137        -4.378634
 C         2.883657         1.317667        -2.059259
 C         2.330435         1.165786        -0.642443
 O         2.428752        -0.279203        -0.207603
 H        -0.810972        -0.434467        -0.129738
 H         0.229597         0.067244         1.137934
 H        -0.614302         1.363783         0.081541
 H         1.450617        -1.304244        -2.317396
 H        -0.037194        -0.414634        -2.534199
 H         0.058357         1.674977        -4.264590
 H         1.530897         2.875278        -3.959726
 H         3.758923         0.729561        -2.277048
 H         2.865355         2.439075        -2.208858
 H         2.334695         1.972464         0.075252
