19
Iteration:  3036
 C         0.222119        -0.042265         0.475329
 C         1.149310         0.179794        -0.718306
 C         0.656085         0.193796        -2.176119
 C         1.612331         1.006737        -2.958930
 C         1.450107         1.388974        -4.383738
 O         2.372966         0.434621        -4.048635
 C         2.501456         1.822750        -1.953548
 C         2.183709         1.136087        -0.689508
 O         2.482995        -0.219550        -0.639506
 H         0.715096        -0.843559         1.004893
 H        -0.022903         0.773188         1.115026
 H        -0.643431        -0.747047         0.154422
 H         0.563573        -0.888517        -2.522679
 H        -0.295843         0.813608        -2.194285
 H         0.645329         0.957244        -5.023240
 H         1.749060         2.410083        -4.682598
 H         3.516640         1.667843        -2.257334
 H         2.318379         2.841403        -1.750762
 H         2.309247         1.663325         0.401657
