19
Iteration:  1907charge 0 multiplicity 1
 C         0.335706        -0.194976         0.475446
 C         1.117475         0.235442        -0.733039
 C         0.483998         0.242024        -2.184554
 C         1.619393         1.060008        -2.947815
 C         1.571418         1.380320        -4.383744
 O         2.364307         0.266921        -3.885053
 C         2.459728         1.918475        -1.976026
 C         2.189382         1.235497        -0.654271
 O         2.460390        -0.207233        -0.771615
 H         0.459840        -1.327379         0.470013
 H         0.602124         0.407855         1.483989
 H        -0.690488         0.022878         0.259744
 H         0.526369        -0.879780        -2.420946
 H        -0.489959         0.665473        -2.356487
 H         0.667299         1.190358        -5.025021
 H         2.274942         2.204814        -4.647954
 H         3.476494         1.952616        -2.381527
 H         1.982233         2.885668        -1.934069
 H         2.518949         1.716521         0.288022
