19
Iteration:  3271
 C         0.349368        -0.223459         0.545160
 C         1.027692         0.268637        -0.695735
 C         0.567286         0.139945        -2.106976
 C         1.615538         0.958631        -2.974230
 C         1.526925         1.399196        -4.384469
 O         2.460384         0.427716        -4.021831
 C         2.453812         1.809880        -2.076301
 C         2.163718         1.263924        -0.644900
 O         2.409030        -0.142058        -0.669679
 H         0.282860        -1.381508         0.617233
 H         0.752675         0.387412         1.382300
 H        -0.731818        -0.157566         0.434902
 H         0.521147        -0.891456        -2.439959
 H        -0.424351         0.656333        -2.407931
 H         0.748869         1.062018        -5.086945
 H         1.901282         2.397315        -4.596515
 H         3.488931         1.732912        -2.507138
 H         2.309808         2.856943        -2.100548
 H         2.635625         1.688325         0.200410
