19
Iteration:  2732charge 0 multiplicity 1
 C         0.141084        -0.105200         0.497393
 C         1.058162         0.291501        -0.786919
 C         0.831269        -0.025172        -2.222760
 C         1.764297         0.936112        -2.943595
 C         1.328888         1.524859        -4.188500
 O         2.243098         0.474001        -4.250435
 C         2.665209         1.641152        -1.997313
 C         2.139653         1.265347        -0.681431
 O         2.489083        -0.109870        -0.493356
 H         0.658096        -0.918329         1.021252
 H         0.027778         0.788267         1.093276
 H        -0.921053        -0.429628         0.086753
 H         0.939283        -1.038911        -2.655321
 H        -0.343477         0.169416        -2.481538
 H         0.351233         1.281396        -4.613782
 H         1.851498         2.461358        -4.475050
 H         3.696254         1.221742        -1.954720
 H         2.531880         2.703636        -2.145509
 H         2.200011         1.916643         0.279606
