19
Iteration:  2364
 C         0.292936        -0.393137         0.429607
 C         1.132473         0.277654        -0.700794
 C         0.527081         0.392129        -2.213265
 C         1.639772         1.056724        -2.932900
 C         1.598599         1.218684        -4.402315
 O         2.340429         0.171333        -3.717609
 C         2.353192         2.075747        -1.989655
 C         2.193789         1.309247        -0.661174
 O         2.538916        -0.129978        -0.865272
 H        -0.753803         0.148754         0.486427
 H         0.065003        -1.444220         0.146040
 H         0.769171        -0.328111         1.306939
 H         0.467463        -0.678156        -2.611451
 H        -0.425053         0.914353        -2.051645
 H         0.745646         0.951822        -5.037402
 H         2.252103         1.901767        -4.925558
 H         3.427537         2.240575        -2.255493
 H         1.827214         3.043894        -2.020553
 H         2.552856         1.661336         0.319537
