19
Iteration:    13
 C         0.256361        -0.205496         0.370979
 C         1.120998         0.234942        -0.726170
 C         0.510242         0.516966        -2.143721
 C         1.642838         1.167743        -2.906168
 C         1.527463         1.369795        -4.397846
 O         2.267136         0.222851        -3.860975
 C         2.567434         1.877293        -1.903678
 C         2.352841         1.083815        -0.681922
 O         2.445000        -0.362465        -0.810300
 H         0.041267        -1.290177         0.220967
 H         0.654736        -0.085478         1.325690
 H        -0.739288         0.408215         0.241704
 H         0.089014        -0.296106        -2.690440
 H        -0.238141         1.322518        -2.078300
 H         0.562497         1.355742        -4.972746
 H         2.312908         2.069018        -4.752162
 H         3.587731         2.116008        -2.178895
 H         1.997360         2.805075        -1.613803
 H         2.450387         1.592713         0.281203
