19
Iteration:  2226charge 0 multiplicity 1
 C         0.121618        -0.226016         0.328747
 C         1.203656         0.198051        -0.620390
 C         0.704778         0.097691        -2.161300
 C         1.759491         0.915350        -3.029545
 C         1.377000         1.494696        -4.379606
 O         2.260854         0.369139        -4.197555
 C         2.609296         1.790048        -1.941521
 C         2.065369         1.308496        -0.644042
 O         2.546677        -0.047215        -0.411715
 H        -0.790257        -0.072689        -0.065050
 H         0.287649        -1.340617         0.407275
 H         0.181500         0.358397         1.282524
 H         0.602039        -0.964734        -2.504044
 H        -0.199401         0.677064        -2.281724
 H         0.379309         1.058777        -4.697309
 H         1.722682         2.415128        -4.872316
 H         3.614807         1.364954        -2.075250
 H         2.638385         2.916347        -1.922292
 H         2.399647         1.820477         0.231774
