19
Iteration:   509
 C         0.160905        -0.072977         0.431216
 C         1.114714         0.223822        -0.768917
 C         0.466037         0.501848        -2.146428
 C         1.636353         1.121844        -2.925342
 C         1.519372         1.436513        -4.308429
 O         2.308782         0.247411        -4.055871
 C         2.592631         1.758278        -1.875492
 C         2.311403         1.058661        -0.621363
 O         2.525058        -0.365605        -0.795999
 H         0.361258        -1.102509         0.549120
 H         0.434198         0.361536         1.348399
 H        -0.995648         0.099368         0.233548
 H         0.048463        -0.357045        -2.687746
 H        -0.288903         1.209898        -1.825834
 H         0.597160         1.286846        -4.943935
 H         2.176288         2.268263        -4.580702
 H         3.619760         2.001825        -2.178342
 H         2.268779         2.800415        -1.710488
 H         2.671583         1.292326         0.375175
