19
Iteration:  1733
 C         0.222110        -0.075658         0.446104
 C         1.090108         0.227155        -0.784251
 C         0.626914         0.136023        -2.211078
 C         1.645729         0.986458        -2.912605
 C         1.447230         1.501847        -4.248616
 O         2.318535         0.352801        -4.089332
 C         2.574815         1.759179        -2.006123
 C         2.275816         1.214210        -0.612408
 O         2.446537        -0.203479        -0.649286
 H         0.367136         0.555009         1.372257
 H        -0.915458         0.059447         0.154538
 H         0.424878        -1.135888         0.656734
 H         0.491969        -0.981660        -2.450559
 H        -0.343477         0.602821        -2.507140
 H         0.481356         1.284957        -4.783134
 H         1.900983         2.449141        -4.545145
 H         3.604143         1.553286        -2.320172
 H         2.475821         2.861567        -1.769513
 H         2.528301         1.687765         0.334701
