19
Iteration:  2403
 C         0.336459        -0.447069         0.362747
 C         1.082013         0.215293        -0.739490
 C         0.445492         0.477078        -2.151737
 C         1.637505         1.069446        -2.979454
 C         1.562428         1.202210        -4.434242
 O         2.368974         0.187732        -3.783347
 C         2.453700         2.019098        -2.068162
 C         2.154391         1.328657        -0.645919
 O         2.547676        -0.105750        -0.668468
 H        -0.721515        -0.420623         0.308676
 H         0.704460        -1.484528         0.375056
 H         0.662183        -0.131733         1.479486
 H        -0.018463        -0.386366        -2.556321
 H        -0.358675         1.231417        -2.274355
 H         0.697425         0.796120        -4.942953
 H         2.169713         2.023312        -4.855402
 H         3.505371         2.033513        -2.338673
 H         2.081880         3.061043        -1.963519
 H         2.398344         1.906922         0.257942
