19
Iteration:  1756charge 0 multiplicity 1
 C         0.260755        -0.108228         0.596663
 C         1.078227         0.222623        -0.685026
 C         0.580843         0.235643        -2.121514
 C         1.590310         1.023325        -3.020581
 C         1.580518         1.550891        -4.465783
 O         2.379038         0.335746        -3.980588
 C         2.450831         1.861093        -2.018256
 C         2.203256         1.133109        -0.684644
 O         2.474462        -0.327630        -0.715969
 H         0.438451         0.560825         1.419720
 H        -0.865726         0.128503         0.377901
 H         0.435700        -1.222102         0.899084
 H         0.552738        -0.910828        -2.308882
 H        -0.505107         0.491954        -2.281930
 H         0.713138         1.434262        -5.158258
 H         2.286696         2.304446        -4.810703
 H         3.543186         1.833984        -2.235370
 H         2.132588         2.983762        -1.859780
 H         2.524512         1.556364         0.269223
