19
Iteration:   251
 C        -0.110418         0.152298         0.072038
 C         1.121186         0.272182        -0.809346
 C         1.025834        -0.210534        -2.280868
 C         1.820819         0.865934        -3.005876
 C         1.133247         1.827257        -3.924474
 O         1.917150         0.756220        -4.387895
 C         3.058172         1.194693        -1.999615
 C         2.418278         1.105030        -0.614862
 O         2.375418        -0.170576        -0.130492
 H        -0.192080        -0.838070         0.570505
 H        -0.261822         1.020418         0.903201
 H        -0.821537         0.461988        -0.577698
 H         1.651202        -1.108142        -2.350258
 H        -0.027516        -0.400301        -2.604646
 H         0.090777         1.687743        -4.160016
 H         1.509114         2.807795        -4.045881
 H         3.971806         0.582939        -2.134931
 H         3.252361         2.280677        -2.235781
 H         2.379868         1.978240         0.070957
