19
Iteration:  2625charge 0 multiplicity 1
 C         0.148465         0.029209         0.409314
 C         1.155576         0.171313        -0.730366
 C         0.832681        -0.093035        -2.230929
 C         1.720519         0.900928        -2.984371
 C         1.236426         1.482400        -4.244461
 O         2.293177         0.524774        -4.221689
 C         2.685628         1.660934        -2.008736
 C         2.104450         1.281847        -0.690621
 O         2.508011        -0.101778        -0.399361
 H        -0.913476        -0.452091        -0.007666
 H         0.248708        -0.816881         1.152007
 H        -0.112152         0.886341         1.027458
 H         1.182685        -1.100713        -2.501553
 H        -0.205984         0.079472        -2.587657
 H         0.372478         0.982276        -4.707711
 H         1.504914         2.556859        -4.379001
 H         3.875796         1.613838        -2.056323
 H         2.512034         2.773948        -2.124399
 H         1.965152         1.830219         0.262836
