19
Iteration:  3784charge 0 multiplicity 1
 C         0.340272        -0.160501         0.417622
 C         1.101657         0.269389        -0.725112
 C         0.534253         0.243026        -2.159782
 C         1.519783         0.993744        -2.989475
 C         1.584267         1.396624        -4.407130
 O         2.449709         0.346255        -3.824275
 C         2.312581         1.957075        -2.005025
 C         2.278925         1.163127        -0.755812
 O         2.472999        -0.263935        -0.670873
 H        -0.058486        -1.159537         0.173451
 H         0.880785        -0.235947         1.285739
 H        -0.477316         0.560760         0.839295
 H         0.472613        -0.848071        -2.481556
 H        -0.502455         0.531867        -2.091920
 H         0.892769         0.931425        -5.118016
 H         2.048757         2.322487        -4.767629
 H         3.329401         2.110152        -2.396464
 H         1.865312         2.916948        -1.942018
 H         2.576147         1.520175         0.301056
