19
Iteration:   333charge 0 multiplicity 1
 C        -0.125740         0.446520        -0.160492
 C         1.196733         0.119120        -0.768751
 C         1.186581        -0.445281        -2.216535
 C         1.914472         0.775729        -2.971121
 C         0.986118         1.747769        -3.632532
 O         1.879191         0.932749        -4.411055
 C         3.031182         1.178222        -2.096852
 C         2.424992         1.170734        -0.704670
 O         2.333059        -0.174442        -0.089707
 H        -0.676495        -0.497196         0.055467
 H         0.015380         0.958953         0.685885
 H        -0.900125         0.894545        -0.962332
 H         1.738688        -1.408782        -2.293983
 H         0.192793        -0.718630        -2.493891
 H        -0.092801         1.479481        -3.668709
 H         1.216877         2.850469        -3.788707
 H         3.925507         0.556860        -2.321264
 H         3.284424         2.241324        -2.242506
 H         2.368536         1.926113         0.042110
