19
Iteration:  2208
 C         0.161290        -0.257455         0.338907
 C         1.106225         0.256364        -0.748525
 C         0.797070         0.084094        -2.218992
 C         1.775245         1.018487        -2.989027
 C         1.322283         1.434137        -4.269893
 O         2.236876         0.356477        -4.249877
 C         2.684947         1.735624        -1.984579
 C         2.132902         1.356939        -0.542433
 O         2.471272        -0.084528        -0.399085
 H        -0.958899        -0.280272         0.046625
 H         0.481818        -1.196114         0.635367
 H         0.268678         0.520469         1.235624
 H         0.857027        -0.924174        -2.538525
 H        -0.285777         0.271815        -2.374976
 H         0.347535         1.268761        -4.683550
 H         1.812034         2.354147        -4.591031
 H         3.724723         1.505194        -1.963042
 H         2.575695         2.772883        -2.286755
 H         1.937674         2.139370         0.259287
