19
Iteration:  3762
 C         0.230360        -0.141315         0.385612
 C         1.140740         0.183262        -0.733506
 C         0.562340         0.208053        -2.138758
 C         1.598816         0.982421        -2.916475
 C         1.562851         1.404885        -4.336426
 O         2.381782         0.309578        -3.979239
 C         2.330962         1.878985        -1.952709
 C         2.286884         1.220603        -0.634186
 O         2.543015        -0.188014        -0.729174
 H         0.025676        -1.211586         0.551752
 H         0.586791         0.270779         1.268526
 H        -0.776839         0.450756         0.346035
 H         0.467671        -0.874266        -2.465098
 H        -0.394263         0.630815        -2.401797
 H         0.653782         1.282647        -4.942892
 H         2.183090         2.240767        -4.689232
 H         3.295907         2.165038        -2.401808
 H         1.796005         2.806044        -1.955232
 H         2.665439         1.762879         0.322731
