19
Iteration:  4620charge 0 multiplicity 1
 C         0.226629        -0.087077         0.413570
 C         1.136139         0.199449        -0.744797
 C         0.779786        -0.137596        -2.221437
 C         1.620603         0.918883        -2.987319
 C         1.348604         1.515670        -4.242788
 O         2.391209         0.574670        -4.247963
 C         2.514588         1.696967        -2.046284
 C         2.155219         1.238451        -0.666070
 O         2.463196        -0.105159        -0.346364
 H         0.649727        -0.935312         0.877403
 H         0.263965         0.715183         1.205127
 H        -0.871002        -0.274381         0.097421
 H         0.825928        -1.190853        -2.578519
 H        -0.284962         0.033300        -2.474074
 H         0.466829         1.323314        -4.825400
 H         1.758222         2.480840        -4.231528
 H         3.501606         1.769616        -2.316783
 H         2.233390         2.750464        -2.066997
 H         2.259286         2.001465         0.145396
