19
Iteration:  3744
 C         0.142809        -0.129913         0.473326
 C         1.164305         0.189140        -0.725590
 C         0.684692         0.171851        -2.134163
 C         1.745337         1.045405        -2.973587
 C         1.457918         1.423759        -4.364674
 O         2.326221         0.251230        -4.028776
 C         2.458726         1.951660        -1.957310
 C         2.128988         1.186687        -0.627217
 O         2.575112        -0.208764        -0.718167
 H         0.070113        -1.280315         0.624325
 H         0.412071         0.406148         1.457761
 H        -0.834201        -0.028430         0.091768
 H         0.428159        -0.766529        -2.744760
 H        -0.303877         0.767774        -2.110562
 H         0.529147         1.127643        -4.906805
 H         1.869295         2.405440        -4.681290
 H         3.566340         2.115640        -2.016396
 H         2.059195         3.046462        -1.935275
 H         2.247486         1.773786         0.260478
