19
Iteration:  4097
 C         0.153333        -0.032830         0.277665
 C         1.133733         0.285488        -0.773058
 C         0.940839        -0.099568        -2.246786
 C         1.797528         0.859679        -2.978920
 C         1.237694         1.509669        -4.155050
 O         2.230625         0.432393        -4.216052
 C         2.560897         1.809395        -1.979980
 C         2.201832         1.246009        -0.656749
 O         2.451825        -0.139265        -0.372189
 H        -0.503125        -0.792927        -0.203015
 H         0.620952        -0.471628         1.118177
 H        -0.531339         0.818420         0.575518
 H         1.121549        -1.198334        -2.397543
 H        -0.135632        -0.048537        -2.435973
 H         0.272582         1.254683        -4.537130
 H         1.588539         2.497440        -4.349073
 H         3.617087         1.866288        -2.014889
 H         2.277755         2.873654        -2.096071
 H         2.293187         1.896760         0.286949
