19
Iteration:  2520charge 0 multiplicity 1
 C         0.109062        -0.054323         0.402147
 C         1.152786         0.219599        -0.679478
 C         0.770193         0.006155        -2.159481
 C         1.686421         0.947579        -3.004240
 C         1.254825         1.387324        -4.322371
 O         2.444774         0.429121        -4.105657
 C         2.494391         1.874756        -2.078852
 C         2.218611         1.281377        -0.675633
 O         2.517044        -0.187223        -0.433830
 H        -0.360222         0.817902         0.790891
 H        -0.653281        -0.851325         0.021276
 H         0.476598        -0.561386         1.275458
 H         1.023536        -1.099835        -2.387988
 H        -0.228369         0.166326        -2.612362
 H         0.445725         1.072114        -4.976964
 H         1.537800         2.424493        -4.597542
 H         3.480136         1.770423        -2.507871
 H         2.078491         2.929289        -2.019630
 H         2.432930         1.832620         0.247742
