19
Iteration:   789
 C        -0.089379         0.172974         0.103708
 C         1.186780         0.177291        -0.771604
 C         1.162249        -0.422538        -2.210628
 C         1.806786         0.799818        -3.026539
 C         1.100411         1.786716        -3.970858
 O         1.994105         0.717636        -4.472237
 C         2.917738         1.344650        -2.020903
 C         2.244016         1.317606        -0.697349
 O         2.399293        -0.083722        -0.046048
 H         0.028497         0.952738         1.039698
 H        -1.081715         0.165933        -0.399729
 H        -0.135740        -0.780239         0.556067
 H         1.821296        -1.315408        -2.194675
 H         0.132941        -0.618413        -2.495581
 H         0.011010         1.901487        -4.146048
 H         1.664182         2.697818        -3.970352
 H         3.672600         0.564056        -2.234473
 H         3.311474         2.313928        -2.318111
 H         2.177693         2.186750        -0.031549
