19
Iteration:  3214charge 0 multiplicity 1
 C         0.108817         0.032257         0.308146
 C         1.180043         0.154750        -0.788496
 C         0.750518         0.022469        -2.182022
 C         1.699171         1.037122        -2.958196
 C         1.300719         1.415411        -4.369246
 O         2.302248         0.344732        -4.086825
 C         2.451191         1.921384        -1.880764
 C         2.224557         1.232797        -0.596744
 O         2.670041        -0.251782        -0.506783
 H        -0.602238        -0.865420         0.068013
 H         0.313922        -0.267589         1.412302
 H        -0.382239         0.888856         0.317853
 H         0.877589        -1.022013        -2.631521
 H        -0.313471         0.315781        -2.509111
 H         0.338826         1.024075        -4.686450
 H         1.647965         2.319510        -4.909044
 H         3.487236         2.139930        -2.265801
 H         1.969402         2.832035        -1.689025
 H         2.387806         1.668001         0.382095
