19
Iteration:   135charge 0 multiplicity 1
 C         0.241981        -0.091967         0.371939
 C         1.127913         0.237824        -0.718486
 C         0.501750         0.412992        -2.108333
 C         1.633597         1.057925        -2.917344
 C         1.559251         1.465673        -4.352029
 O         2.307173         0.304792        -3.974761
 C         2.520482         1.791357        -1.916792
 C         2.310865         1.100645        -0.633043
 O         2.437409        -0.366592        -0.793847
 H        -0.481195        -0.855021        -0.028135
 H         0.669745        -0.582965         1.127533
 H        -0.282533         0.899569         0.752367
 H         0.383289        -0.551788        -2.615444
 H        -0.433038         0.982796        -1.948371
 H         0.661625         1.274816        -5.038623
 H         2.090367         2.416299        -4.606791
 H         3.620314         1.771239        -2.158344
 H         2.127949         2.798202        -1.809836
 H         2.828076         1.450583         0.290194
