19
Iteration:  1664
 C         0.097141         0.008428         0.284030
 C         1.129834         0.242080        -0.708252
 C         0.904632        -0.079934        -2.178725
 C         1.660938         0.921305        -2.953318
 C         1.271910         1.568762        -4.245487
 O         2.203085         0.559566        -4.235395
 C         2.666978         1.559432        -2.026975
 C         2.257288         1.240202        -0.698703
 O         2.476700        -0.165596        -0.300551
 H         0.543131        -0.311872         1.343474
 H        -0.475541         0.961261         0.344628
 H        -0.499114        -0.695397        -0.118054
 H         1.211476        -1.070080        -2.456399
 H        -0.167807        -0.077150        -2.371554
 H         0.248319         1.449545        -4.595303
 H         1.789232         2.527530        -4.522388
 H         3.657954         1.232876        -2.314951
 H         2.537520         2.585756        -2.207644
 H         2.261176         1.893641         0.188470
