19
Iteration:  2739
 C         0.152072        -0.138913         0.480753
 C         1.074055         0.270713        -0.677729
 C         0.802225         0.009147        -2.190159
 C         1.735646         0.916134        -2.919411
 C         1.353217         1.548480        -4.247225
 O         2.254256         0.461688        -4.266863
 C         2.719022         1.686716        -2.033033
 C         2.124834         1.266552        -0.730855
 O         2.447997        -0.141742        -0.488718
 H         0.645921        -0.800376         1.113333
 H        -0.076707         0.725299         1.142238
 H        -0.864862        -0.418676         0.055163
 H         1.023435        -1.078652        -2.330268
 H        -0.187288         0.098581        -2.459111
 H         0.377870         1.457619        -4.754045
 H         1.811039         2.526900        -4.401095
 H         3.750333         1.456398        -2.087460
 H         2.508443         2.769171        -2.227380
 H         2.090993         1.760451         0.225609
