19
Iteration:  3950
 C         0.155462        -0.153472         0.499014
 C         1.127923         0.247675        -0.704279
 C         0.637693         0.118749        -2.094232
 C         1.558909         1.016418        -2.985897
 C         1.436852         1.369621        -4.505473
 O         2.416673         0.474807        -4.019340
 C         2.474524         1.881045        -1.975168
 C         2.339072         1.196679        -0.664888
 O         2.480700        -0.238332        -0.598574
 H         0.317081        -1.264634         0.578862
 H         0.340479         0.504312         1.405662
 H        -0.907577        -0.126287         0.205939
 H         0.631891        -0.906546        -2.754796
 H        -0.397590         0.446974        -2.035935
 H         0.589255         0.941776        -5.107451
 H         2.028143         2.276092        -4.811878
 H         3.491066         2.004276        -2.454617
 H         2.165349         2.910843        -1.905215
 H         2.472149         1.630153         0.320805
