19
Iteration:  4851charge 0 multiplicity 1
 C         0.273615        -0.347645         0.475048
 C         1.151300         0.150100        -0.754358
 C         0.524252         0.347721        -2.103463
 C         1.633887         1.058320        -2.927974
 C         1.643263         1.346606        -4.412462
 O         2.270607         0.259587        -3.915280
 C         2.429475         1.978629        -1.946835
 C         2.227075         1.223219        -0.629011
 O         2.502225        -0.131222        -0.837213
 H         0.528273         0.222530         1.437897
 H        -0.854570        -0.332695         0.305169
 H         0.444881        -1.429873         0.569467
 H         0.377115        -0.595832        -2.660557
 H        -0.286548         1.050081        -2.148785
 H         0.843019         1.092418        -5.094752
 H         2.250313         2.231145        -4.641184
 H         3.448479         2.141058        -2.264842
 H         1.874429         3.037497        -1.940886
 H         2.265356         1.760599         0.444744
