19
Iteration:  3640
 C         0.180896         0.009837         0.329501
 C         1.138630         0.161280        -0.814489
 C         0.867396        -0.076193        -2.249026
 C         1.676888         0.962501        -2.992813
 C         1.305789         1.541472        -4.245006
 O         2.312732         0.388071        -4.158870
 C         2.533638         1.783546        -1.972382
 C         2.192330         1.213940        -0.627662
 O         2.468277        -0.146382        -0.385529
 H        -0.409787        -0.819607         0.302299
 H         0.541904        -0.074970         1.390306
 H        -0.491173         0.981868         0.463303
 H         1.132143        -1.132133        -2.612468
 H        -0.234078         0.096691        -2.429653
 H         0.335515         1.358668        -4.688241
 H         1.845582         2.407373        -4.636637
 H         3.590522         1.844531        -2.338374
 H         2.134869         2.762357        -1.773766
 H         2.164103         1.866649         0.277324
