19
Iteration:  4188charge 0 multiplicity 1
 C         0.114628        -0.167843         0.437939
 C         1.106172         0.265874        -0.728531
 C         0.854253        -0.019087        -2.136275
 C         1.753302         0.930653        -2.978186
 C         1.329145         1.544328        -4.303252
 O         2.291763         0.439782        -4.211243
 C         2.585100         1.755465        -2.007098
 C         2.194377         1.252378        -0.626879
 O         2.446891        -0.126894        -0.521950
 H         0.299678        -1.154850         0.866221
 H         0.013622         0.578433         1.311267
 H        -0.964757        -0.261745         0.123094
 H         1.194770        -1.009251        -2.335520
 H        -0.221986         0.139128        -2.594457
 H         0.316097         1.306661        -4.628091
 H         1.682265         2.529581        -4.605565
 H         3.725987         1.783702        -2.026841
 H         2.442918         2.824703        -2.289126
 H         2.299890         1.837373         0.394005
