19
Iteration:  2207charge 0 multiplicity 1
 C         0.154738        -0.260759         0.334108
 C         1.109201         0.260165        -0.743198
 C         0.799215         0.081038        -2.223463
 C         1.776966         1.022402        -2.991565
 C         1.325508         1.435510        -4.262062
 O         2.233144         0.356846        -4.245884
 C         2.685191         1.731871        -1.991587
 C         2.135911         1.344182        -0.541335
 O         2.462705        -0.076445        -0.399177
 H        -0.914660        -0.283565         0.087560
 H         0.501674        -1.171506         0.620352
 H         0.292789         0.551359         1.214408
 H         0.889615        -0.927433        -2.524184
 H        -0.267641         0.268144        -2.393231
 H         0.351390         1.238017        -4.693492
 H         1.800167         2.369556        -4.556277
 H         3.715406         1.501589        -2.001339
 H         2.568121         2.785562        -2.264256
 H         1.938215         2.130423         0.241900
