19
Iteration:   151
 C         0.109523        -0.024243         0.447094
 C         1.081254         0.305073        -0.758886
 C         0.570029         0.174932        -2.143284
 C         1.617768         1.041829        -2.963042
 C         1.478485         1.547167        -4.350284
 O         2.335232         0.423177        -4.048695
 C         2.612402         1.796307        -1.961200
 C         2.405363         1.022902        -0.601537
 O         2.430282        -0.387338        -0.699107
 H        -0.739895        -0.635298         0.209369
 H         0.816136        -0.523807         1.345330
 H        -0.187153         0.855220         0.909443
 H         0.353750        -0.912526        -2.325718
 H        -0.335105         0.744318        -2.377576
 H         0.546833         1.287552        -4.808943
 H         2.087815         2.371989        -4.757156
 H         3.578856         1.767947        -2.436180
 H         2.528903         2.922798        -1.806134
 H         2.452598         1.492225         0.361696
