19
Iteration:   934
 C        -0.026332         0.132743         0.246001
 C         1.122656         0.187531        -0.713040
 C         0.953938        -0.158084        -2.224748
 C         1.756639         0.884294        -2.992426
 C         1.147569         1.623486        -4.010366
 O         2.215004         0.652076        -4.388764
 C         2.814166         1.426064        -2.071486
 C         2.256343         1.239704        -0.730481
 O         2.449412        -0.142112        -0.194020
 H         0.156621         0.794732         1.156616
 H        -0.920541         0.291457        -0.281777
 H        -0.177935        -0.945227         0.707811
 H         1.471595        -1.109794        -2.430493
 H        -0.076290        -0.111861        -2.605666
 H         0.196558         1.254715        -4.247121
 H         1.309423         2.635327        -4.316714
 H         3.744772         0.880513        -2.297222
 H         2.910634         2.489715        -2.115018
 H         2.303409         1.959301         0.095305
