19
Iteration:  3979
 C         0.141998        -0.019006         0.333716
 C         1.181446         0.183813        -0.798052
 C         0.734002         0.078287        -2.207492
 C         1.615593         0.970414        -2.947039
 C         1.342603         1.436247        -4.292681
 O         2.362582         0.391637        -4.067358
 C         2.437983         1.855795        -1.980080
 C         2.258692         1.221887        -0.598903
 O         2.579780        -0.240786        -0.493355
 H         0.120336        -1.072258         0.543474
 H         0.491016         0.433856         1.192310
 H        -0.949939         0.235641         0.047708
 H         0.820506        -0.754776        -2.757031
 H        -0.406844         0.260355        -2.277764
 H         0.399086         1.196297        -4.776253
 H         1.780488         2.359242        -4.636487
 H         3.447377         1.876181        -2.429886
 H         2.151821         2.945330        -2.101358
 H         2.378155         1.691817         0.438998
