19
Iteration:   361charge 0 multiplicity 1
 C        -0.136669         0.464866        -0.117360
 C         1.218024         0.171287        -0.812310
 C         1.223471        -0.252665        -2.315909
 C         1.886115         0.856397        -3.028937
 C         0.933558         1.734428        -3.761904
 O         1.844974         0.775168        -4.386818
 C         3.033906         1.238603        -2.045521
 C         2.393815         1.100331        -0.605613
 O         2.394492        -0.281843        -0.002396
 H        -0.711703        -0.457275        -0.463141
 H         0.020495         0.451530         1.112097
 H        -0.755378         1.215558        -0.409175
 H         1.879689        -1.117852        -2.427491
 H         0.213537        -0.594659        -2.715418
 H        -0.116180         1.573423        -3.972136
 H         1.237271         2.732435        -3.937622
 H         4.000621         0.690972        -2.260898
 H         3.415229         2.267738        -2.230887
 H         2.197421         1.909118         0.173847
