19
Iteration:   430charge 0 multiplicity 1
 C         0.042329         0.148039         0.365121
 C         1.097429         0.191261        -0.749636
 C         0.818223        -0.076756        -2.219871
 C         1.784489         0.873027        -2.966819
 C         1.243360         1.705975        -4.107411
 O         2.174168         0.680412        -4.379090
 C         2.917533         1.415932        -2.017543
 C         2.220316         1.180278        -0.713551
 O         2.430034        -0.292630        -0.286207
 H        -0.538390        -0.829069         0.393303
 H         0.618549         0.292232         1.191666
 H        -0.770069         0.954937         0.261795
 H         0.948854        -1.144784        -2.469954
 H        -0.225323         0.122158        -2.385967
 H         0.283944         1.567648        -4.541436
 H         1.512022         2.766526        -4.087740
 H         3.852823         0.793023        -2.305869
 H         3.067800         2.443747        -2.176101
 H         1.947700         1.896225         0.061050
