19
Iteration:  3300
 C         0.294873        -0.278514         0.415719
 C         1.115196         0.202036        -0.769463
 C         0.559148         0.287710        -2.192900
 C         1.698350         1.081434        -2.960054
 C         1.507410         1.314094        -4.409580
 O         2.286314         0.230243        -3.949757
 C         2.497090         1.937683        -1.950426
 C         2.151768         1.233605        -0.579434
 O         2.532595        -0.095244        -0.669458
 H         0.503891        -1.360382         0.609710
 H         0.556979         0.340944         1.326087
 H        -0.745288        -0.319592         0.114807
 H         0.446393        -0.698265        -2.738689
 H        -0.317126         0.965334        -2.128942
 H         0.535806         1.055644        -4.839313
 H         2.089039         2.100527        -4.939325
 H         3.528011         2.119891        -2.314834
 H         1.897336         2.877520        -1.823506
 H         2.367729         1.738581         0.377357
