19
Iteration:   833charge 0 multiplicity 1
 C        -0.114542         0.200637        -0.026242
 C         1.198277         0.206783        -0.779190
 C         1.187654        -0.442198        -2.226223
 C         1.832135         0.791664        -2.955205
 C         1.046499         1.669766        -3.799463
 O         1.956264         0.757611        -4.411369
 C         2.996522         1.340293        -2.107685
 C         2.286779         1.242329        -0.756770
 O         2.407175         0.027080        -0.039963
 H         0.144995         0.183163         1.186902
 H        -0.831193         1.038144        -0.300091
 H        -0.672914        -0.672193        -0.365198
 H         1.540701        -1.464561        -2.497559
 H         0.119728        -0.349078        -2.419868
 H         0.026211         1.369754        -4.071914
 H         1.297838         2.710887        -3.840153
 H         3.666527         0.503072        -1.873827
 H         3.405354         2.286499        -2.344264
 H         2.132648         2.062497        -0.057052
