19
Iteration:  3931
 C         0.303747        -0.217906         0.514772
 C         1.077633         0.273747        -0.707878
 C         0.607938         0.284103        -2.165566
 C         1.675487         1.032940        -2.982962
 C         1.448960         1.366089        -4.375710
 O         2.454298         0.323426        -4.061488
 C         2.386177         1.883719        -1.949614
 C         2.171642         1.202557        -0.608271
 O         2.488287        -0.223883        -0.711960
 H         0.209029        -1.313194         0.786524
 H         0.560125         0.476013         1.426322
 H        -0.689790        -0.054534         0.224583
 H         0.457000        -0.790938        -2.462716
 H        -0.331614         0.650670        -2.481938
 H         0.525606         0.947872        -4.810381
 H         1.853360         2.300663        -4.810930
 H         3.455416         2.051233        -1.997322
 H         2.054224         2.923795        -2.054601
 H         2.620505         1.629008         0.235443
