19
Iteration:  2410
 C         0.328326        -0.471662         0.435922
 C         1.102471         0.263370        -0.739390
 C         0.483170         0.438748        -2.114942
 C         1.631402         1.124932        -3.021030
 C         1.559137         1.250169        -4.472836
 O         2.390942         0.170642        -3.762021
 C         2.400147         1.975081        -2.037032
 C         2.191020         1.325844        -0.710476
 O         2.517865        -0.110006        -0.638841
 H        -0.745969        -0.469321         0.172168
 H         0.503259        -1.650026         0.329819
 H         0.593472        -0.011247         1.414863
 H         0.132939        -0.504032        -2.717962
 H        -0.263385         1.316766        -2.145584
 H         0.677613         0.911499        -5.054516
 H         2.021439         2.055214        -5.071197
 H         3.471457         1.949388        -2.298502
 H         2.077792         3.033207        -2.124289
 H         2.494375         1.838730         0.218390
