19
Iteration:  3631
 C         0.060821         0.062003         0.404994
 C         1.169006         0.163380        -0.748860
 C         0.833334        -0.083768        -2.219201
 C         1.690207         0.961836        -2.982629
 C         1.293763         1.479336        -4.287754
 O         2.338178         0.478879        -4.173172
 C         2.500601         1.811524        -2.019011
 C         2.274105         1.211797        -0.662069
 O         2.502600        -0.216863        -0.395159
 H        -0.583963        -0.775945         0.148241
 H         0.571538        -0.212659         1.247585
 H        -0.651163         0.799729         0.439082
 H         1.314024        -1.063906        -2.593044
 H        -0.275951        -0.050174        -2.318717
 H         0.426441         1.190146        -4.875523
 H         1.730712         2.485374        -4.459169
 H         3.604254         1.703134        -2.157721
 H         2.197042         2.889919        -2.029804
 H         2.206504         1.887253         0.249684
