19
Iteration:  4540charge 0 multiplicity 1
 C         0.008122        -0.149650         0.204211
 C         1.233442         0.199991        -0.712759
 C         0.863818        -0.086720        -2.139798
 C         1.670645         0.977862        -2.984245
 C         1.279248         1.439907        -4.246488
 O         2.239921         0.430064        -4.175053
 C         2.501938         1.887888        -2.015751
 C         2.345156         1.254120        -0.610110
 O         2.573014        -0.095241        -0.355510
 H        -0.638151        -0.893329        -0.435769
 H         0.392472        -0.587439         1.129115
 H        -0.627955         0.748542         0.430334
 H         1.296975        -1.034534        -2.394688
 H        -0.179872         0.183193        -2.214829
 H         0.336927         1.171406        -4.770199
 H         1.552700         2.371072        -4.800253
 H         3.627544         1.921242        -2.264140
 H         1.991451         2.849275        -1.926274
 H         2.269691         1.953336         0.183544
