19
Iteration:  3420
 C         0.260706        -0.119502         0.465430
 C         1.141764         0.140808        -0.700580
 C         0.488503         0.204286        -2.072190
 C         1.515512         1.034852        -3.010239
 C         1.665112         1.401302        -4.419581
 O         2.438487         0.285905        -3.812334
 C         2.276045         1.972869        -2.016735
 C         2.259744         1.185783        -0.708690
 O         2.541242        -0.240555        -0.822704
 H        -0.567417        -0.794938         0.392703
 H         1.047693        -0.514616         1.218365
 H        -0.322202         0.797013         0.891353
 H         0.324163        -0.741923        -2.635372
 H        -0.336012         0.856232        -1.998440
 H         0.896079         1.138089        -5.166654
 H         2.333656         2.232257        -4.649752
 H         3.300870         2.298393        -2.316075
 H         1.561699         2.808269        -1.800971
 H         2.650713         1.659824         0.155325
