19
Iteration:  2440
 C         0.281624        -0.261642         0.407752
 C         1.129497         0.334584        -0.761656
 C         0.498891         0.205284        -2.127627
 C         1.595356         1.019423        -2.897933
 C         1.528770         1.301217        -4.452783
 O         2.408037         0.231630        -3.892703
 C         2.393990         2.008011        -1.961865
 C         2.230462         1.265341        -0.658647
 O         2.549742        -0.158340        -0.689367
 H        -0.838701         0.094392         0.171228
 H         0.359378        -1.325504         0.365998
 H         0.511320         0.128121         1.297673
 H         0.548161        -0.849972        -2.518015
 H        -0.478607         0.702769        -2.244128
 H         0.712714         0.908627        -5.104820
 H         1.937056         2.276075        -4.725409
 H         3.463913         2.112369        -2.280963
 H         1.911651         2.969589        -2.148639
 H         2.500639         1.661157         0.319689
