19
Iteration:  3398charge 0 multiplicity 1
 C         0.444223        -0.172711         0.565370
 C         1.059123         0.207267        -0.769438
 C         0.467850         0.303668        -2.260617
 C         1.558139         1.096144        -3.008814
 C         1.631986         1.329127        -4.416814
 O         2.465088         0.199681        -3.808654
 C         2.278395         1.994156        -1.906856
 C         2.154805         1.166404        -0.622058
 O         2.499627        -0.205827        -0.855719
 H        -0.331971        -0.897219         0.416706
 H         1.217125        -0.612388         1.304803
 H        -0.054854         0.782514         0.978559
 H         0.360047        -0.580122        -2.917041
 H        -0.299443         0.960223        -2.287687
 H         0.823178         0.951185        -5.057189
 H         2.180458         2.200297        -4.790095
 H         3.378834         2.019958        -2.004251
 H         1.721223         2.954461        -1.970618
 H         2.286246         1.541907         0.366308
