19
Iteration:  3275
 C         0.346047        -0.257201         0.536163
 C         1.050238         0.293985        -0.655085
 C         0.555012         0.176185        -2.135836
 C         1.655723         0.979665        -2.985060
 C         1.525078         1.392280        -4.382253
 O         2.440460         0.383187        -4.024012
 C         2.428786         1.847520        -2.069447
 C         2.134169         1.268656        -0.632856
 O         2.425942        -0.176391        -0.689589
 H         0.408513        -1.294469         0.669729
 H         0.785971         0.387035         1.252985
 H        -0.883659        -0.194131         0.383556
 H         0.607991        -0.854667        -2.469421
 H        -0.350772         0.675795        -2.271553
 H         0.767776         1.006517        -5.073875
 H         1.917772         2.399869        -4.570069
 H         3.447591         1.553335        -2.404896
 H         2.342567         3.019915        -2.031808
 H         2.599732         1.898393         0.205998
