19
Iteration:   217charge 0 multiplicity 1
 C        -0.037662         0.166838         0.201439
 C         1.149820         0.200176        -0.720439
 C         0.890342        -0.056550        -2.214240
 C         1.779659         0.898819        -2.970521
 C         1.231332         1.770502        -4.040269
 O         2.135136         0.639207        -4.318717
 C         2.826715         1.420243        -2.049807
 C         2.303144         1.080814        -0.637158
 O         2.440617        -0.325600        -0.290381
 H        -0.762380        -0.633453         0.142691
 H         0.311595         0.511192         1.303862
 H        -0.577707         0.964348        -0.155084
 H         1.278992        -1.066181        -2.492521
 H        -0.170344        -0.102804        -2.484247
 H         0.204793         1.589900        -4.322593
 H         1.643977         2.775195        -4.184266
 H         3.786205         1.056262        -2.369272
 H         2.884683         2.562900        -2.217588
 H         2.315300         1.869291         0.081327
