19
Iteration:   600
 C         0.261258        -0.293934         0.349349
 C         1.050534         0.182252        -0.815782
 C         0.432257         0.668433        -2.065760
 C         1.620062         1.222096        -2.874731
 C         1.646981         1.269904        -4.386203
 O         2.269521         0.096517        -3.747613
 C         2.487943         2.001478        -1.917816
 C         2.312183         1.096077        -0.666582
 O         2.530935        -0.323905        -0.941266
 H        -0.757636        -0.528254         0.132499
 H         0.909412        -1.160805         0.884128
 H         0.134473         0.513785         1.066964
 H        -0.163924        -0.071679        -2.589311
 H        -0.172701         1.557858        -1.763620
 H         0.695914         1.322236        -5.002710
 H         2.567280         1.688917        -4.925917
 H         3.440441         2.266744        -2.308229
 H         1.983864         3.069791        -1.832297
 H         2.668905         1.525742         0.270058
