19
Iteration:  1988charge 0 multiplicity 1
 C         0.139974        -0.042762         0.350991
 C         1.181649         0.204003        -0.782469
 C         0.758370         0.013697        -2.254837
 C         1.698014         0.960655        -2.956123
 C         1.310468         1.450266        -4.260825
 O         2.325703         0.452299        -4.057083
 C         2.528790         1.795271        -1.972264
 C         2.245182         1.229540        -0.670393
 O         2.520629        -0.199201        -0.475944
 H        -0.798300        -0.325577        -0.108821
 H         0.405887        -0.866969         0.874010
 H        -0.124412         0.954967         0.980570
 H         0.835491        -1.060074        -2.370700
 H        -0.324540         0.251275        -2.376761
 H         0.439476         0.986884        -4.680088
 H         1.614980         2.367944        -4.687398
 H         3.531631         2.051582        -2.323942
 H         1.989928         2.748232        -2.063678
 H         2.397228         1.831815         0.221055
