19
Iteration:  2147
 C         0.063101         0.092689         0.314435
 C         1.189763         0.139718        -0.661400
 C         0.856273        -0.172563        -2.266406
 C         1.753923         0.914562        -2.985474
 C         1.200872         1.472252        -4.273447
 O         2.379773         0.576596        -4.257584
 C         2.479750         1.704509        -2.016737
 C         2.143393         1.207017        -0.611418
 O         2.601756        -0.143108        -0.319241
 H        -0.679518         0.853982         0.028839
 H        -0.462841        -0.935810         0.511343
 H         0.426814         0.333676         1.242958
 H         1.136573        -1.242837        -2.554365
 H        -0.201959         0.126004        -2.402352
 H         0.236914         1.099821        -4.693784
 H         1.456716         2.526632        -4.612368
 H         3.623017         1.627455        -2.170050
 H         2.270353         2.806762        -1.962711
 H         2.105013         1.889666         0.230102
