19
Iteration:   137
 C         0.233454        -0.078109         0.363993
 C         1.125925         0.244863        -0.716464
 C         0.500250         0.395350        -2.105598
 C         1.629965         1.053258        -2.922737
 C         1.547049         1.465355        -4.351701
 O         2.312480         0.321700        -3.986029
 C         2.541091         1.792928        -1.910819
 C         2.312070         1.092715        -0.628667
 O         2.438804        -0.368525        -0.785246
 H        -0.525379        -0.803629         0.001515
 H         0.729323        -0.607020         1.147840
 H        -0.282983         0.877016         0.752434
 H         0.367355        -0.631556        -2.536644
 H        -0.454779         0.913409        -1.974922
 H         0.662166         1.301712        -5.059566
 H         2.119598         2.416655        -4.626004
 H         3.620299         1.748305        -2.193415
 H         2.113768         2.811181        -1.811607
 H         2.800754         1.436372         0.282300
