19
Iteration:  2821charge 0 multiplicity 1
 C         0.141366        -0.070439         0.345337
 C         1.118225         0.297871        -0.722046
 C         0.628291         0.206990        -2.174191
 C         1.703580         0.997586        -2.928472
 C         1.318826         1.391007        -4.296662
 O         2.387150         0.390246        -4.074724
 C         2.548813         1.850135        -1.903263
 C         2.279541         1.107100        -0.627680
 O         2.524743        -0.263285        -0.685915
 H         0.531933         0.230792         1.434639
 H        -0.778890         0.521694         0.256271
 H        -0.040342        -1.120113         0.564356
 H         0.856936        -0.841056        -2.468228
 H        -0.523376         0.551230        -2.208047
 H         0.464399         0.893592        -4.790985
 H         1.627940         2.367254        -4.711130
 H         3.669635         1.962926        -2.123766
 H         2.071441         2.801734        -2.048343
 H         2.522281         1.553534         0.325204
