19
Iteration:  2010
 C         0.110605        -0.186631         0.380314
 C         1.115515         0.324830        -0.718380
 C         0.803185        -0.029645        -2.146404
 C         1.655008         0.940263        -3.012733
 C         1.362475         1.515095        -4.280146
 O         2.289034         0.427134        -4.200102
 C         2.558943         1.783071        -2.023262
 C         2.245098         1.252504        -0.643541
 O         2.481112        -0.115474        -0.433713
 H        -0.904658        -0.198560        -0.017710
 H         0.376898        -1.128617         0.694343
 H         0.093538         0.639233         1.236416
 H         1.233347        -0.996355        -2.398398
 H        -0.302110        -0.009771        -2.292574
 H         0.544824         1.192283        -4.885391
 H         1.778668         2.459089        -4.500217
 H         3.595725         1.504559        -2.035606
 H         2.519282         2.851580        -2.220642
 H         2.379620         1.830328         0.271237
