19
Iteration:  4738
 C         0.335498        -0.212908         0.508170
 C         1.106137         0.215169        -0.759493
 C         0.633902         0.194791        -2.215483
 C         1.602010         1.075561        -2.943112
 C         1.593063         1.487121        -4.392312
 O         2.295016         0.329347        -3.962586
 C         2.411447         1.843234        -1.971551
 C         2.140146         1.177459        -0.629706
 O         2.479809        -0.204494        -0.699065
 H         0.735985         0.291060         1.337721
 H        -0.697928         0.125836         0.380409
 H         0.476796        -1.345746         0.680698
 H         0.613385        -0.830296        -2.519364
 H        -0.407931         0.500219        -2.468537
 H         0.710290         1.257390        -5.060564
 H         2.108324         2.440387        -4.629998
 H         3.566809         1.898237        -2.116307
 H         2.101170         2.933710        -2.049032
 H         2.375070         1.682116         0.253687
