19
Iteration:   843charge 0 multiplicity 1
 C        -0.093489         0.205408        -0.077645
 C         1.181049         0.206835        -0.816463
 C         1.151606        -0.303885        -2.243451
 C         1.928075         0.775865        -2.937657
 C         1.016706         1.564566        -3.770182
 O         1.940720         0.755294        -4.452285
 C         2.968279         1.302680        -2.042538
 C         2.267417         1.302236        -0.671819
 O         2.428863        -0.042067        -0.063248
 H         0.148832         0.128691         1.092041
 H        -0.608440         1.235114        -0.261478
 H        -0.804478        -0.539351        -0.257785
 H         1.672946        -1.262499        -2.164909
 H         0.157519        -0.415416        -2.667833
 H        -0.058842         1.259105        -3.946289
 H         1.076438         2.657243        -3.850178
 H         3.840622         0.709398        -2.188975
 H         3.311724         2.285560        -2.332507
 H         2.159048         2.215284        -0.070669
