19
Iteration:  4006charge 0 multiplicity 1
 C         0.095213        -0.058665         0.403321
 C         1.109952         0.164046        -0.711458
 C         0.804832         0.047652        -2.110795
 C         1.817610         0.889366        -2.986398
 C         1.344485         1.482008        -4.301378
 O         2.288370         0.404942        -4.242594
 C         2.541606         1.835543        -1.940373
 C         2.100125         1.274211        -0.590030
 O         2.556258        -0.147697        -0.537887
 H        -0.297882        -1.125269         0.351892
 H         0.615848        -0.076419         1.461468
 H        -0.710911         0.622627         0.274905
 H         1.026519        -1.048769        -2.643475
 H        -0.200682         0.129200        -2.396450
 H         0.273913         1.244847        -4.575793
 H         1.614343         2.458872        -4.799023
 H         3.657032         1.871100        -2.135325
 H         2.185419         2.833145        -2.141325
 H         2.410225         1.685009         0.315516
