19
Iteration:  2635charge 0 multiplicity 1
 C         0.069809         0.027434         0.401044
 C         1.135503         0.138038        -0.762695
 C         0.847653        -0.110364        -2.295494
 C         1.787462         0.918709        -2.981674
 C         1.173995         1.525514        -4.165696
 O         2.313705         0.448613        -4.178571
 C         2.667766         1.744878        -1.980971
 C         2.141685         1.246442        -0.676442
 O         2.531327        -0.121274        -0.404504
 H        -0.968233        -0.336595        -0.029416
 H         0.692682        -0.500961         1.088586
 H        -0.050352         1.079679         0.779000
 H         1.182442        -1.128802        -2.468742
 H        -0.202643         0.020907        -2.711592
 H         0.220253         1.176241        -4.577150
 H         1.345595         2.574787        -4.466404
 H         3.723829         1.487934        -2.395895
 H         2.417174         2.812763        -2.118707
 H         2.086919         2.005839         0.158161
