19
Iteration:  1802charge 0 multiplicity 1
 C         0.298209        -0.171534         0.401115
 C         1.102913         0.254951        -0.749663
 C         0.502169         0.398924        -2.174528
 C         1.654741         1.084946        -2.895416
 C         1.523727         1.290945        -4.389827
 O         2.413041         0.248079        -3.758311
 C         2.360423         1.947362        -1.914353
 C         2.259479         1.134171        -0.673350
 O         2.534008        -0.277841        -0.891755
 H         0.789920        -0.154736         1.334855
 H        -0.529708         0.495794         0.565640
 H        -0.004648        -1.324844         0.171100
 H         0.035671        -0.430024        -2.778516
 H        -0.332436         1.163743        -2.026823
 H         0.715392         0.806566        -4.892817
 H         1.836633         2.226302        -4.882833
 H         3.427317         2.116857        -2.264720
 H         1.833656         2.963532        -1.964867
 H         2.512790         1.645307         0.274862
