19
Iteration:  3380
 C         0.409094        -0.263206         0.467808
 C         1.034205         0.242263        -0.838962
 C         0.505418         0.367430        -2.186754
 C         1.684355         1.047785        -2.907121
 C         1.601721         1.212647        -4.410140
 O         2.422261         0.286009        -3.797188
 C         2.385162         1.988251        -1.918663
 C         2.141518         1.249005        -0.668976
 O         2.396608        -0.172648        -0.841299
 H        -0.075028        -1.344604         0.373170
 H         1.268378        -0.576894         1.045194
 H         0.036770         0.508942         0.999679
 H         0.306102        -0.689020        -2.491668
 H        -0.530777         0.961749        -2.144487
 H         0.708539         0.814189        -4.941318
 H         2.140593         2.004341        -4.925466
 H         3.440431         2.113116        -2.282586
 H         1.841656         2.935685        -1.785311
 H         2.469868         1.648203         0.300688
