19
Iteration:  1767
 C         0.315675        -0.069090         0.563862
 C         1.134252         0.196200        -0.682998
 C         0.532142         0.222006        -2.123119
 C         1.617335         1.111328        -3.049986
 C         1.645861         1.459905        -4.461428
 O         2.360155         0.330728        -3.970007
 C         2.342672         1.887970        -1.988313
 C         2.260523         1.146313        -0.651400
 O         2.412981        -0.359489        -0.712598
 H         0.736946         0.383759         1.424537
 H        -0.842862        -0.059676         0.317726
 H         0.405100        -1.237638         0.791467
 H         0.341629        -0.817040        -2.653371
 H        -0.323723         0.976757        -2.173599
 H         0.887704         1.064628        -5.166973
 H         2.182258         2.403197        -4.640443
 H         3.374727         1.977244        -2.429883
 H         1.959921         2.977389        -1.719842
 H         2.574215         1.646821         0.271303
