19
Iteration:  1693
 C         0.010370        -0.121218         0.326897
 C         1.140062         0.246741        -0.649446
 C         0.807311         0.111567        -2.196666
 C         1.701396         1.022938        -3.030391
 C         1.209999         1.464287        -4.314439
 O         2.239495         0.431939        -4.289421
 C         2.730502         1.756753        -1.934130
 C         2.358234         1.168384        -0.612548
 O         2.521961        -0.175005        -0.320085
 H         0.259701        -0.016990         1.297945
 H        -0.717496         0.560689        -0.079291
 H        -0.541661        -1.208116         0.164221
 H         0.797728        -0.920808        -2.644391
 H        -0.240326         0.463439        -2.239150
 H         0.159375         1.334931        -4.582385
 H         1.696774         2.340865        -4.721800
 H         3.635458         1.207191        -2.323253
 H         2.689768         2.867282        -2.112050
 H         2.438180         1.788564         0.307389
