19
Iteration:  4628
 C         0.199801        -0.089031         0.402761
 C         1.106097         0.159085        -0.730549
 C         0.745832        -0.130530        -2.222828
 C         1.626726         0.946447        -2.948376
 C         1.356830         1.513709        -4.288285
 O         2.348149         0.553667        -4.198273
 C         2.519424         1.762243        -2.015157
 C         2.213596         1.245045        -0.703159
 O         2.513437        -0.117397        -0.383678
 H         0.369095        -0.977611         1.040051
 H         0.093630         0.784468         0.985437
 H        -0.836675        -0.340302         0.060368
 H         1.123829        -1.118262        -2.335481
 H        -0.305524        -0.192504        -2.354848
 H         0.518535         1.436291        -5.000683
 H         1.799420         2.505256        -4.495527
 H         3.654036         1.717219        -2.155777
 H         2.162756         2.796851        -2.092695
 H         2.267916         1.848451         0.109471
