19
Iteration:  1268charge 0 multiplicity 1
 C         0.142866         0.049292         0.440911
 C         1.129250         0.187423        -0.691457
 C         0.713555         0.033586        -2.276067
 C         1.660110         1.018731        -3.029829
 C         1.242960         1.443572        -4.379412
 O         2.402092         0.528131        -4.161950
 C         2.582096         1.737069        -2.023986
 C         2.292039         1.148526        -0.683441
 O         2.450217        -0.285315        -0.320933
 H         0.856150        -0.096065         1.314938
 H        -0.411872         0.990241         0.594547
 H        -0.368965        -0.875120         0.510294
 H         0.986943        -0.915646        -2.726692
 H        -0.335002         0.340032        -2.252795
 H         0.463263         0.953747        -4.954962
 H         1.533591         2.481822        -4.665089
 H         3.577775         1.524559        -2.340555
 H         2.366310         2.782482        -1.836080
 H         2.390798         1.827527         0.184861
