19
Iteration:  1174charge 0 multiplicity 1
 C         0.268484        -0.367121         0.333263
 C         1.127774         0.228987        -0.743188
 C         0.439807         0.542703        -2.117180
 C         1.612970         1.127800        -2.928086
 C         1.485316         1.199229        -4.480214
 O         2.369605         0.249141        -3.852790
 C         2.478824         1.946777        -1.970063
 C         2.312508         1.275833        -0.620754
 O         2.529310        -0.236556        -0.663877
 H         0.710153        -0.295326         1.406409
 H        -0.709171         0.024597         0.228394
 H         0.244916        -1.441271         0.222167
 H         0.068063        -0.329288        -2.685242
 H        -0.221691         1.413237        -2.133425
 H         0.521301         0.791215        -4.846279
 H         1.988134         1.846519        -5.237728
 H         3.562196         1.763952        -2.327288
 H         2.166756         3.053337        -1.988482
 H         2.431726         1.837231         0.331327
