19
Iteration:  4320charge 0 multiplicity 1
 C         0.284501        -0.140749         0.451664
 C         1.184799         0.065330        -0.810404
 C         0.503686         0.266270        -2.148995
 C         1.560700         1.036660        -2.978315
 C         1.631816         1.340609        -4.475143
 O         2.420207         0.311554        -3.773129
 C         2.163309         2.037974        -1.955369
 C         2.251334         1.209475        -0.630342
 O         2.598182        -0.195037        -0.795929
 H        -0.575733        -0.815786         0.261066
 H         0.948587        -0.690169         1.243475
 H        -0.088356         0.737845         0.856377
 H         0.297144        -0.669069        -2.558979
 H        -0.571321         0.699998        -1.986826
 H         0.907516         0.880972        -5.128425
 H         2.330319         2.034387        -4.882027
 H         3.203222         2.233737        -2.329944
 H         1.536444         2.882287        -1.767771
 H         2.612365         1.372289         0.340981
