19
Iteration:  2651charge 0 multiplicity 1
 C         0.108387         0.078750         0.281423
 C         1.136776         0.229513        -0.765948
 C         0.932544        -0.143277        -2.182999
 C         1.727536         0.928842        -2.974138
 C         1.234168         1.484934        -4.172574
 O         2.254095         0.497513        -4.226667
 C         2.561070         1.739455        -2.010527
 C         2.214840         1.205512        -0.640430
 O         2.493852        -0.159688        -0.401863
 H        -0.719496        -0.626420         0.060831
 H         0.488885        -0.392898         1.257541
 H        -0.405948         0.997197         0.578005
 H         1.329551        -1.159977        -2.502391
 H        -0.077055         0.070222        -2.455771
 H         0.217358         1.174199        -4.465511
 H         1.663047         2.415077        -4.570602
 H         3.624880         1.643671        -2.053335
 H         2.427577         2.832476        -2.136420
 H         2.350210         1.677624         0.305944
