19
Iteration:  2071charge 0 multiplicity 1
 C         0.113746        -0.065998         0.274844
 C         1.179977         0.218501        -0.735265
 C         0.872362        -0.100273        -2.209481
 C         1.722155         0.878645        -2.960423
 C         1.258805         1.517511        -4.233022
 O         2.301170         0.487347        -4.233996
 C         2.576971         1.683817        -2.042935
 C         2.167754         1.319357        -0.640415
 O         2.510391        -0.047254        -0.285553
 H        -0.563255         0.745595         0.459852
 H        -0.564004        -0.966704        -0.132420
 H         0.436579        -0.519749         1.153077
 H         0.963839        -1.197823        -2.510150
 H        -0.205206         0.059395        -2.121750
 H         0.251196         1.177260        -4.573643
 H         1.558872         2.501489        -4.735369
 H         3.666722         1.348950        -2.032223
 H         2.517123         2.716357        -2.439685
 H         2.108039         2.003041         0.191886
