19
Iteration:    10
 C         0.229693        -0.179910         0.366398
 C         1.129021         0.233149        -0.693180
 C         0.525595         0.458978        -2.149770
 C         1.641409         1.139799        -2.908031
 C         1.511089         1.394704        -4.385509
 O         2.283043         0.267335        -3.899361
 C         2.575779         1.826111        -1.901680
 C         2.338046         1.070269        -0.684146
 O         2.427218        -0.342834        -0.791039
 H        -0.037948        -1.207945         0.172754
 H         0.811088        -0.012780         1.462638
 H        -0.578565         0.447937         0.351378
 H         0.137486        -0.447530        -2.704226
 H        -0.267688         1.226537        -2.173136
 H         0.647168         1.442399        -4.944978
 H         2.207986         2.115167        -4.726485
 H         3.553386         2.108345        -2.201520
 H         2.177084         2.901838        -1.766183
 H         2.426454         1.620786         0.227966
