19
Iteration:  3951charge 0 multiplicity 1
 C         0.154698        -0.151705         0.494628
 C         1.129983         0.250100        -0.713669
 C         0.641452         0.115708        -2.089231
 C         1.551275         1.017119        -2.983923
 C         1.432721         1.372740        -4.503454
 O         2.416145         0.478682        -4.012651
 C         2.476249         1.875276        -1.975362
 C         2.341578         1.195440        -0.679012
 O         2.481387        -0.239609        -0.587497
 H         0.279581        -1.278861         0.586111
 H         0.332719         0.523735         1.431089
 H        -0.862105        -0.128623         0.174391
 H         0.626996        -0.894548        -2.760032
 H        -0.364866         0.413678        -2.049483
 H         0.584165         0.954643        -5.113307
 H         2.032050         2.269091        -4.813051
 H         3.484371         2.017917        -2.427607
 H         2.179798         2.899188        -1.916728
 H         2.464554         1.623773         0.275616
