19
Iteration:  2874charge 0 multiplicity 1
 C         0.349445        -0.153082         0.464849
 C         1.118471         0.190440        -0.769262
 C         0.378842         0.311601        -2.198080
 C         1.621921         1.109437        -2.995561
 C         1.660960         1.411019        -4.407181
 O         2.314298         0.256644        -3.911951
 C         2.418772         1.913941        -1.918978
 C         2.214858         1.149381        -0.655587
 O         2.540474        -0.253495        -0.730545
 H         0.458274         0.496692         1.338631
 H        -0.706893        -0.339859         0.296974
 H         0.850390        -1.136768         0.889133
 H        -0.130646        -0.512469        -2.728837
 H        -0.460279         0.913548        -1.808939
 H         0.779262         1.176138        -5.022991
 H         2.404303         2.154959        -4.735502
 H         3.449724         1.626690        -2.328048
 H         1.982705         3.047335        -1.827354
 H         2.388369         1.643580         0.340951
