19
Iteration:  2822
 C         0.145195        -0.080429         0.348004
 C         1.112520         0.302047        -0.713233
 C         0.622764         0.208530        -2.171706
 C         1.691727         0.993895        -2.939074
 C         1.325534         1.395858        -4.296898
 O         2.395041         0.389409        -4.073699
 C         2.552229         1.862770        -1.899537
 C         2.286458         1.108839        -0.628413
 O         2.519534        -0.270097        -0.689670
 H         0.550904         0.259559         1.451646
 H        -0.799221         0.505713         0.244154
 H         0.001509        -1.081862         0.562508
 H         0.827882        -0.855762        -2.431871
 H        -0.540068         0.536097        -2.233553
 H         0.456146         0.896994        -4.762851
 H         1.649639         2.348711        -4.729516
 H         3.671457         1.949026        -2.117668
 H         2.046925         2.798591        -2.071645
 H         2.520622         1.551732         0.289169
