19
Iteration:  1986charge 0 multiplicity 1
 C         0.132092        -0.033775         0.351329
 C         1.200840         0.204121        -0.786651
 C         0.750968         0.029215        -2.247862
 C         1.703156         0.956385        -2.971153
 C         1.306205         1.439947        -4.249133
 O         2.329002         0.452062        -4.055575
 C         2.511412         1.810878        -1.977760
 C         2.241554         1.216716        -0.672987
 O         2.519353        -0.206950        -0.479803
 H        -0.765608        -0.282168        -0.118985
 H         0.418796        -0.918478         1.011453
 H        -0.108433         0.947559         0.931799
 H         0.895802        -1.061357        -2.442918
 H        -0.284549         0.308100        -2.327090
 H         0.471728         0.938969        -4.711429
 H         1.600174         2.398549        -4.705038
 H         3.538062         2.039976        -2.205108
 H         1.989753         2.748766        -2.054900
 H         2.372815         1.794219         0.222685
