19
Iteration:  2979
 C         0.320323        -0.213162         0.430708
 C         1.135195         0.191476        -0.739267
 C         0.506235         0.406085        -2.188953
 C         1.638397         1.087435        -2.965332
 C         1.589413         1.370120        -4.415839
 O         2.311890         0.210051        -3.865531
 C         2.392557         1.938495        -1.945083
 C         2.220623         1.190283        -0.599413
 O         2.516047        -0.228554        -0.785552
 H         0.847860         0.044387         1.301105
 H        -0.662727         0.237936         0.425260
 H         0.149558        -1.323730         0.344422
 H         0.273577        -0.641867        -2.578566
 H        -0.492296         0.945569        -2.199753
 H         0.645107         1.127478        -4.898332
 H         2.224973         2.115559        -4.927225
 H         3.405933         2.068986        -2.237207
 H         1.990176         2.895799        -1.816090
 H         2.588669         1.490641         0.461984
