19
Iteration:   375charge 0 multiplicity 1
 C        -0.178567         0.360437        -0.022278
 C         1.206204         0.170334        -0.758797
 C         1.219713        -0.310060        -2.220632
 C         1.823775         0.912851        -2.939483
 C         1.030756         1.797949        -3.856946
 O         1.908969         0.737429        -4.406206
 C         2.990345         1.317559        -2.065418
 C         2.385329         1.071140        -0.688097
 O         2.380865        -0.260416        -0.099850
 H        -1.079095        -0.300924        -0.273629
 H        -0.059757         0.319487         1.024209
 H        -0.374787         1.448426        -0.298531
 H         1.853165        -1.198412        -2.382965
 H         0.229851        -0.540887        -2.603855
 H         0.007758         1.527690        -3.779143
 H         1.275857         2.814272        -4.187156
 H         3.814764         0.551984        -2.252131
 H         3.221474         2.332470        -2.159863
 H         2.581965         1.892835         0.017497
