19
Iteration:  1721
 C         0.210525        -0.093170         0.303206
 C         1.135321         0.297720        -0.736989
 C         0.674645         0.165673        -2.170797
 C         1.735746         0.917839        -2.991494
 C         1.281437         1.526614        -4.246651
 O         2.307870         0.358557        -4.098346
 C         2.657297         1.783843        -1.936535
 C         2.216403         1.205431        -0.640807
 O         2.452258        -0.257580        -0.545456
 H         0.456507         0.494562         1.276232
 H        -0.876979         0.136729        -0.036965
 H         0.221556        -1.091044         0.558857
 H         0.645184        -0.911552        -2.494941
 H        -0.331102         0.629785        -2.174000
 H         0.275220         1.330630        -4.682327
 H         1.842061         2.388749        -4.609977
 H         3.685941         1.513262        -2.147527
 H         2.489393         2.811611        -2.251292
 H         2.344906         1.748883         0.284906
