19
Iteration:  3382
 C         0.417926        -0.255582         0.468668
 C         1.036540         0.226562        -0.843493
 C         0.510451         0.362969        -2.207618
 C         1.688377         1.043899        -2.910036
 C         1.594908         1.223490        -4.421266
 O         2.425607         0.276261        -3.793796
 C         2.377210         1.983167        -1.909042
 C         2.124407         1.243909        -0.658506
 O         2.401809        -0.172302        -0.842636
 H        -0.078835        -1.265884         0.433088
 H         1.278848        -0.544416         0.995953
 H         0.035245         0.588245         1.110480
 H         0.241391        -0.655550        -2.466872
 H        -0.552492         0.918187        -2.157168
 H         0.724695         0.862959        -4.980126
 H         2.164316         2.020175        -4.907736
 H         3.369390         2.167093        -2.308338
 H         1.906374         2.956606        -1.699783
 H         2.520777         1.665342         0.316039
