19
Iteration:  4762
 C         0.319906        -0.205392         0.409979
 C         1.148249         0.209986        -0.789371
 C         0.474300         0.210272        -2.203499
 C         1.658981         1.009923        -2.921520
 C         1.556386         1.468986        -4.337203
 O         2.370629         0.253680        -3.908059
 C         2.369083         2.008392        -1.924414
 C         2.282673         1.158986        -0.688112
 O         2.459449        -0.229913        -0.725636
 H         0.475079         0.421678         1.263227
 H        -0.797815        -0.241507         0.168338
 H         0.824473        -1.187562         0.684063
 H         0.108428        -0.750066        -2.619954
 H        -0.435560         0.789953        -2.187269
 H         0.672076         1.239143        -4.911050
 H         2.084654         2.346183        -4.727531
 H         3.402352         2.252147        -2.239944
 H         1.891413         3.047017        -1.756576
 H         2.630281         1.678561         0.295238
