19
Iteration:  4224
 C         0.167125        -0.175105         0.291406
 C         1.151257         0.171339        -0.724209
 C         0.717241         0.090758        -2.157467
 C         1.656123         0.985458        -2.996513
 C         1.404229         1.540194        -4.364765
 O         2.252786         0.384051        -4.049920
 C         2.501337         1.743582        -2.020868
 C         2.223879         1.269459        -0.618140
 O         2.571704        -0.099998        -0.409500
 H         0.366325        -1.297139         0.317202
 H         0.415730         0.215709         1.316756
 H        -0.793045         0.001837        -0.040629
 H         0.843703        -0.862371        -2.656303
 H        -0.332277         0.316409        -2.284034
 H         0.454118         1.312968        -4.953922
 H         1.982913         2.465851        -4.643513
 H         3.572840         1.468359        -2.313169
 H         2.198626         2.781552        -2.087470
 H         2.096756         1.866643         0.172826
