19
Iteration:   964
 C         0.103069        -0.056636         0.311266
 C         1.061138         0.324331        -0.728465
 C         0.886147        -0.090078        -2.209060
 C         1.751965         0.881409        -2.942484
 C         1.323565         1.637606        -4.156426
 O         2.103795         0.511102        -4.352691
 C         2.841906         1.484725        -1.979257
 C         2.238516         1.311310        -0.648176
 O         2.338911        -0.107677        -0.355606
 H         0.360703         0.378003         1.403102
 H        -0.960504         0.154138         0.093840
 H         0.269564        -1.053168         0.460672
 H         1.394479        -1.059088        -2.315529
 H        -0.081474        -0.198792        -2.693237
 H         0.256214         1.487521        -4.469387
 H         1.724355         2.606804        -4.513364
 H         3.878324         1.172456        -2.144586
 H         2.964740         2.577305        -2.115567
 H         2.470405         1.894849         0.236850
