19
Iteration:  1206
 C         0.217909        -0.153189         0.378119
 C         1.140583         0.217579        -0.719356
 C         0.585618         0.226721        -2.130582
 C         1.649121         1.019987        -2.950249
 C         1.529926         1.436834        -4.438057
 O         2.279088         0.285672        -3.917145
 C         2.394986         1.870135        -1.986601
 C         2.313261         1.222495        -0.661346
 O         2.534924        -0.238716        -0.635483
 H         0.781804         0.047538         1.417893
 H        -0.668932         0.463859         0.405913
 H        -0.142756        -1.152581         0.357769
 H         0.470196        -0.743545        -2.635780
 H        -0.397529         0.675410        -2.273823
 H         0.607045         1.169884        -4.998824
 H         2.191849         2.229673        -4.891727
 H         3.440165         2.094018        -2.355286
 H         2.051487         2.926194        -1.975738
 H         2.516971         1.762418         0.274013
