19
Iteration:  4442
 C         0.209260        -0.241330         0.413526
 C         1.205054         0.214514        -0.709036
 C         0.614294         0.215290        -2.214428
 C         1.657133         0.956221        -2.980626
 C         1.464236         1.369343        -4.369873
 O         2.347892         0.280501        -4.088359
 C         2.351437         1.954454        -1.906491
 C         2.242431         1.312499        -0.606976
 O         2.577432        -0.150134        -0.586644
 H         0.522475        -1.363112         0.582945
 H         0.243018         0.347275         1.394919
 H        -0.829078        -0.322731         0.026946
 H         0.574820        -0.861836        -2.653932
 H        -0.390005         0.825809        -2.261482
 H         0.500317         1.065576        -4.879210
 H         2.098681         2.282135        -4.574966
 H         3.375094         2.220155        -2.333214
 H         1.648133         2.770110        -1.890429
 H         2.383314         1.895308         0.256567
