19
Iteration:   812charge 0 multiplicity 1
 C        -0.087059         0.119799         0.026859
 C         1.165034         0.174454        -0.749262
 C         1.141649        -0.354763        -2.211235
 C         1.815838         0.770946        -3.010184
 C         1.109466         1.804158        -3.841006
 O         1.988338         0.750354        -4.409410
 C         2.910683         1.202474        -2.150155
 C         2.227383         1.268993        -0.761898
 O         2.444339         0.025629         0.017130
 H         0.208958         0.594929         1.105266
 H        -0.788112         0.761989        -0.509050
 H        -0.656691        -0.807083         0.077600
 H         1.967427        -1.081428        -2.040121
 H         0.229300        -0.851726        -2.565540
 H         0.088023         1.678167        -4.189168
 H         1.528363         2.768480        -3.906920
 H         3.858946         0.565168        -2.293264
 H         3.001353         2.224973        -2.392898
 H         2.084622         2.229556        -0.256876
