19
Iteration:  4728charge 0 multiplicity 1
 C         0.292522        -0.212802         0.515413
 C         1.072159         0.179969        -0.676410
 C         0.559678         0.120403        -2.193655
 C         1.619677         1.032805        -3.008207
 C         1.549133         1.496072        -4.478444
 O         2.334369         0.375148        -4.019628
 C         2.458296         1.862174        -1.899873
 C         2.184195         1.217220        -0.608854
 O         2.509604        -0.157268        -0.700854
 H         0.757281         0.138980         1.395051
 H        -0.756993         0.156381         0.482238
 H         0.143660        -1.349653         0.570811
 H         0.679930        -0.858310        -2.587793
 H        -0.428553         0.547753        -2.186183
 H         0.702655         1.203427        -5.129412
 H         2.150037         2.359554        -4.771653
 H         3.517080         1.594160        -2.167611
 H         2.281745         2.974281        -1.819018
 H         2.468778         1.717643         0.319130
