19
Iteration:  1103charge 0 multiplicity 1
 C         0.381709        -0.245468         0.445214
 C         1.141809         0.187920        -0.783341
 C         0.369127         0.518394        -2.151369
 C         1.501131         1.162736        -2.978534
 C         1.764449         1.254813        -4.399345
 O         2.335642         0.206494        -3.752957
 C         2.290027         2.002252        -2.011867
 C         2.256391         1.203892        -0.723610
 O         2.547659        -0.330721        -0.786370
 H         1.006806        -0.409784         1.346098
 H        -0.516561         0.457033         0.673330
 H        -0.070542        -1.323278         0.396865
 H        -0.031171        -0.420024        -2.548590
 H        -0.388601         1.271204        -1.850507
 H         1.038102         1.087472        -5.235796
 H         2.480159         2.038979        -4.744197
 H         3.297870         2.053313        -2.371026
 H         1.920137         2.992328        -1.701506
 H         2.524751         1.535597         0.278003
