19
Iteration:  4588charge 0 multiplicity 1
 C         0.127848        -0.179694         0.448233
 C         1.105333         0.150276        -0.687684
 C         0.793502        -0.076780        -2.182897
 C         1.745524         0.958131        -2.986366
 C         1.270838         1.443032        -4.308565
 O         2.342415         0.550613        -4.313198
 C         2.676800         1.731440        -1.993180
 C         2.056894         1.293593        -0.636963
 O         2.521680        -0.049676        -0.400418
 H         0.060389        -1.230319         0.506630
 H         0.534299         0.222935         1.411011
 H        -0.888235         0.287814         0.196453
 H         1.017807        -1.101016        -2.603879
 H        -0.207918         0.341688        -2.444799
 H         0.290427         1.148562        -4.661049
 H         1.501656         2.472093        -4.553574
 H         3.680203         1.472802        -2.086617
 H         2.513643         2.810685        -2.002002
 H         2.204457         2.044488         0.203344
