19
Iteration:  3155
 C         0.172420        -0.159265         0.492273
 C         1.068184         0.230446        -0.743785
 C         0.782584         0.066167        -2.190546
 C         1.676581         0.957589        -3.008698
 C         1.335432         1.479464        -4.326004
 O         2.355397         0.463409        -4.265986
 C         2.610675         1.672735        -1.957446
 C         2.143987         1.237709        -0.625406
 O         2.480282        -0.097333        -0.438146
 H        -0.207838        -1.103324         0.400532
 H         0.889640         0.004058         1.213909
 H        -0.752743         0.552213         0.670710
 H         0.975638        -1.062965        -2.400629
 H        -0.269598         0.428990        -2.386828
 H         0.378265         1.126607        -4.774530
 H         1.585300         2.497751        -4.645151
 H         3.606625         1.378084        -2.295475
 H         2.544121         2.824827        -2.079752
 H         2.251970         1.999827         0.257433
