19
Iteration:  3536
 C         0.139556        -0.165023         0.360300
 C         1.119652         0.242802        -0.611264
 C         0.721700        -0.005682        -2.106483
 C         1.624249         0.952179        -2.977473
 C         1.515195         1.613728        -4.347596
 O         2.249931         0.341002        -4.219335
 C         2.515295         1.741304        -2.010079
 C         2.252407         1.265247        -0.659317
 O         2.505308        -0.078946        -0.471071
 H         0.039889        -1.353966         0.460252
 H         0.390370         0.209490         1.360350
 H        -0.915032        -0.014253        -0.001072
 H         1.052886        -0.982112        -2.382666
 H        -0.318091         0.145726        -2.231511
 H         0.549211         1.685671        -4.861598
 H         2.198829         2.458734        -4.566779
 H         3.532676         1.484369        -2.285923
 H         2.315854         2.841543        -2.072580
 H         2.261592         1.918908         0.232119
