19
Iteration:  1171
 C         0.261844        -0.396938         0.315758
 C         1.138088         0.246121        -0.756354
 C         0.440859         0.566618        -2.109193
 C         1.640489         1.086111        -2.947879
 C         1.470561         1.197560        -4.454595
 O         2.372281         0.254900        -3.818773
 C         2.499625         1.951782        -1.963343
 C         2.282448         1.266953        -0.624808
 O         2.511906        -0.208069        -0.699555
 H         0.825987        -0.240521         1.437123
 H        -0.767417         0.004247         0.266449
 H         0.293415        -1.430335         0.205735
 H         0.063598        -0.344974        -2.578991
 H        -0.216092         1.440822        -2.107428
 H         0.477805         0.811235        -4.818851
 H         2.020047         1.782464        -5.284049
 H         3.528070         1.704930        -2.266668
 H         2.114359         2.975928        -1.986591
 H         2.558335         1.845792         0.298606
