19
Iteration:  3863charge 0 multiplicity 1
 C         0.226028        -0.449656         0.321628
 C         1.170307         0.300101        -0.658654
 C         0.509368         0.350990        -2.098063
 C         1.542255         1.092879        -2.967705
 C         1.592536         1.260145        -4.498042
 O         2.353190         0.225211        -3.760009
 C         2.369262         2.085559        -2.030703
 C         2.284271         1.246071        -0.662969
 O         2.554490        -0.151657        -0.725316
 H        -0.588708        -1.204050         0.060011
 H         0.879702        -0.793847         1.200498
 H        -0.388065         0.362262         0.716892
 H         0.216595        -0.697191        -2.573254
 H        -0.462276         0.799564        -1.906470
 H         0.784556         0.960712        -5.214711
 H         2.305948         2.061885        -4.812798
 H         3.409234         2.140452        -2.432214
 H         2.044552         3.137436        -1.906520
 H         2.798959         1.740917         0.154629
