19
Iteration:  2296charge 0 multiplicity 1
 C         0.238468        -0.080181         0.562250
 C         1.101824         0.187118        -0.760339
 C         0.566310         0.126535        -2.220762
 C         1.653916         1.097643        -2.909599
 C         1.493006         1.270388        -4.368124
 O         2.542193         0.327617        -4.020167
 C         2.274976         1.999197        -1.918965
 C         2.185310         1.165066        -0.628291
 O         2.536206        -0.232056        -0.775304
 H        -0.328390         0.902998         0.804487
 H        -0.473735        -0.751131         0.340307
 H         0.789473        -0.295822         1.484796
 H         0.799479        -0.816743        -2.663025
 H        -0.430212         0.500332        -2.481783
 H         0.591679         0.934264        -4.855245
 H         1.799580         2.224863        -4.822890
 H         3.349713         2.110361        -1.977472
 H         1.765358         2.957025        -1.994811
 H         2.575123         1.826443         0.196052
