19
Iteration:  4027charge 0 multiplicity 1
 C         0.138079        -0.144994         0.409018
 C         1.095160         0.273443        -0.713342
 C         0.830266        -0.042287        -2.216488
 C         1.652909         0.965708        -2.978618
 C         1.321762         1.469856        -4.289896
 O         2.319218         0.453325        -4.195683
 C         2.574128         1.749002        -2.014277
 C         2.232206         1.283450        -0.668360
 O         2.475591        -0.106912        -0.378134
 H        -0.491587        -0.997204         0.022069
 H         0.776161        -0.518193         1.322019
 H        -0.526553         0.672572         0.525397
 H         0.934705        -1.215803        -2.535917
 H        -0.200727         0.071909        -2.546317
 H         0.379138         1.189944        -4.856352
 H         1.586766         2.572045        -4.444012
 H         3.624528         1.566563        -2.433559
 H         2.594990         2.831416        -1.966285
 H         2.321528         1.958770         0.143430
