19
Iteration:  1795charge 0 multiplicity 1
 C         0.320527        -0.163734         0.407738
 C         1.085441         0.245599        -0.776883
 C         0.426505         0.411406        -2.163001
 C         1.671234         1.090090        -2.958272
 C         1.528060         1.331569        -4.373155
 O         2.437671         0.254088        -3.796476
 C         2.343278         1.929799        -1.941452
 C         2.265484         1.084524        -0.677864
 O         2.542379        -0.291601        -0.821911
 H         0.888214         0.047452         1.418329
 H        -0.595094         0.406231         0.530431
 H         0.105724        -1.207708         0.440080
 H         0.172971        -0.506576        -2.589107
 H        -0.336452         1.155556        -2.221357
 H         0.683061         0.848699        -4.878403
 H         1.986190         2.236617        -4.789547
 H         3.282602         2.252011        -2.356216
 H         1.842833         2.855960        -1.715825
 H         2.459167         1.668541         0.229756
