19
Iteration:  1970charge 0 multiplicity 1
 C         0.127981         0.019789         0.338276
 C         1.129533         0.108139        -0.674701
 C         0.783784         0.091399        -2.126683
 C         1.690093         1.009609        -2.943412
 C         1.287125         1.359354        -4.358581
 O         2.447421         0.417657        -4.166754
 C         2.416705         1.926484        -1.955629
 C         2.199351         1.162151        -0.594556
 O         2.580200        -0.258532        -0.557264
 H        -0.921408        -0.390193         0.020835
 H         0.439280        -0.634678         1.192293
 H        -0.002052         0.954751         0.738513
 H         0.642525        -0.847016        -2.688247
 H        -0.260790         0.509959        -2.280009
 H         0.288909         1.076470        -4.795087
 H         1.617934         2.366659        -4.612027
 H         3.486158         1.853918        -2.357446
 H         2.159571         3.022128        -1.829821
 H         2.354974         1.730257         0.358677
