19
Iteration:  4717charge 0 multiplicity 1
 C         0.179470        -0.248435         0.520889
 C         1.100058         0.184326        -0.726187
 C         0.546516         0.123210        -2.092888
 C         1.581955         1.037483        -3.021297
 C         1.464005         1.443592        -4.443461
 O         2.449434         0.427235        -4.120649
 C         2.526872         1.858457        -1.949396
 C         2.207118         1.276111        -0.572122
 O         2.544608        -0.185183        -0.635834
 H         0.715391        -0.267048         1.413660
 H        -0.683826         0.456065         0.598252
 H        -0.158460        -1.362406         0.423886
 H         0.394887        -0.793722        -2.579781
 H        -0.483526         0.397150        -2.095041
 H         0.552795         1.233985        -5.047153
 H         1.997595         2.273082        -4.896670
 H         3.582890         1.724714        -2.303302
 H         2.387008         2.981939        -2.029144
 H         2.373888         1.708155         0.410987
