19
Iteration:  3912
 C         0.325033        -0.194681         0.426073
 C         1.104121         0.183365        -0.805860
 C         0.575329         0.255851        -2.214564
 C         1.743994         0.982997        -2.890619
 C         1.495804         1.346883        -4.288262
 O         2.368380         0.264479        -3.941036
 C         2.449229         1.950772        -1.976824
 C         2.146632         1.228245        -0.635251
 O         2.461067        -0.148686        -0.759604
 H         0.450439        -1.290104         0.502882
 H         0.961922         0.083591         1.256476
 H        -0.769356        -0.048641         0.601751
 H         0.153282        -0.581413        -2.669196
 H        -0.323233         1.057522        -2.151779
 H         0.580982         1.037162        -4.758763
 H         1.921007         2.242727        -4.691914
 H         3.469367         2.182075        -2.303982
 H         1.884432         2.953784        -1.910788
 H         2.172347         1.781699         0.336283
