19
Iteration:  1080charge 0 multiplicity 1
 C         0.348669        -0.089730         0.483704
 C         1.096576         0.143468        -0.762821
 C         0.471888         0.387958        -2.136013
 C         1.582635         1.039635        -2.962996
 C         1.599343         1.351313        -4.411169
 O         2.443952         0.308471        -3.785657
 C         2.356674         1.894992        -1.965272
 C         2.276257         1.108537        -0.703248
 O         2.460807        -0.264458        -0.853555
 H         0.953196        -0.324583         1.296480
 H        -0.337918         0.796270         0.701764
 H        -0.327246        -1.039463         0.388137
 H         0.061654        -0.531588        -2.599582
 H        -0.342799         1.116414        -1.942537
 H         0.889261         0.916780        -5.122481
 H         2.151302         2.170652        -4.849143
 H         3.331241         2.134710        -2.345836
 H         1.833063         2.828614        -1.715415
 H         2.382114         1.504051         0.288538
