19
Iteration:  2829
 C         0.183800        -0.090171         0.419068
 C         1.073033         0.308627        -0.681783
 C         0.592865         0.201679        -2.135903
 C         1.631574         0.976823        -2.995328
 C         1.386273         1.415647        -4.318119
 O         2.434576         0.389377        -4.057554
 C         2.546745         1.923277        -1.912132
 C         2.328277         1.147125        -0.639973
 O         2.468227        -0.320306        -0.714399
 H         0.553333         0.394066         1.243577
 H        -0.821646         0.224931         0.171932
 H         0.187535        -1.289079         0.499120
 H         0.512553        -0.893803        -2.258136
 H        -0.401870         0.438503        -2.458381
 H         0.401053         1.026577        -4.614618
 H         1.806389         2.274532        -4.863852
 H         3.609834         1.878184        -2.182532
 H         2.013877         2.886688        -1.989058
 H         2.638420         1.675445         0.351420
