19
Iteration:  2787
 C         0.132345        -0.052870         0.312321
 C         1.193445         0.141940        -0.765018
 C         0.677963         0.116313        -2.129243
 C         1.697297         1.038962        -2.977728
 C         1.304499         1.495815        -4.346856
 O         2.296538         0.406339        -4.126316
 C         2.561097         1.799570        -2.022939
 C         2.210391         1.194094        -0.634537
 O         2.595976        -0.262840        -0.394323
 H         0.595976        -0.340648         1.296264
 H        -0.378485         0.890833         0.507162
 H        -0.730903        -0.689285        -0.134466
 H         0.775974        -0.852929        -2.677753
 H        -0.510327         0.335061        -2.043146
 H         0.455061         1.121267        -4.930056
 H         1.678258         2.472303        -4.742191
 H         3.673234         1.696081        -2.184691
 H         2.377472         2.872685        -1.985277
 H         2.315805         1.706900         0.377231
