19
Iteration:  1945
 C         0.165520        -0.059847         0.469114
 C         1.117368         0.208796        -0.665017
 C         0.614764         0.153679        -2.166322
 C         1.677741         0.986228        -2.981761
 C         1.367580         1.349971        -4.482096
 O         2.462231         0.467603        -4.035981
 C         2.426308         1.837461        -1.940434
 C         2.290511         1.148539        -0.619700
 O         2.553327        -0.258400        -0.619719
 H        -0.573520        -0.806426         0.236998
 H         0.564743        -0.333981         1.352181
 H        -0.453373         0.945248         0.539974
 H         0.594785        -0.745989        -2.760081
 H        -0.444801         0.528726        -2.313278
 H         0.515127         0.893318        -4.975411
 H         1.651181         2.280731        -4.910449
 H         3.479221         2.131501        -2.206313
 H         1.896285         2.817102        -1.729234
 H         2.466407         1.757920         0.274068
