19
Iteration:    36
 C         0.263046        -0.337969         0.255897
 C         1.115586         0.245621        -0.764709
 C         0.447878         0.754457        -2.081944
 C         1.609181         1.201115        -2.880578
 C         1.682473         1.257324        -4.404099
 O         2.229120         0.139284        -3.693725
 C         2.421263         1.995866        -1.912440
 C         2.393243         1.062789        -0.582303
 O         2.460361        -0.329350        -0.974228
 H         0.418680        -1.436890         0.366669
 H         0.695075         0.026939         1.066189
 H        -0.883003         0.007828         0.297316
 H        -0.109056        -0.049978        -2.485831
 H        -0.211608         1.604931        -1.829980
 H         0.667605         0.987242        -4.874598
 H         2.351484         1.957451        -5.008465
 H         3.475632         1.800994        -2.284448
 H         2.167256         3.056084        -2.033910
 H         3.048304         1.245303         0.298882
