19
Iteration:  3495charge 0 multiplicity 1
 C         0.247131        -0.226411         0.378263
 C         1.094330         0.213044        -0.789534
 C         0.631442         0.206942        -2.178354
 C         1.695740         1.060934        -3.010983
 C         1.395445         1.400005        -4.356648
 O         2.360350         0.367235        -4.128441
 C         2.598897         1.752870        -1.942553
 C         2.144269         1.267050        -0.586178
 O         2.484375        -0.124581        -0.505201
 H         0.350885        -1.225810         0.558407
 H         0.551904         0.221832         1.398559
 H        -0.922359        -0.005368         0.246495
 H         0.542225        -0.842152        -2.522451
 H        -0.408360         0.838909        -2.003664
 H         0.459845         0.911508        -4.647763
 H         1.693373         2.317953        -4.852491
 H         3.617473         1.459761        -2.174321
 H         2.426221         2.836658        -1.958989
 H         2.339351         1.832758         0.303402
