19
Iteration:  4279
 C         0.190613        -0.224597         0.417051
 C         1.116248         0.268161        -0.691631
 C         0.641604         0.127710        -2.153834
 C         1.680934         1.030268        -2.966022
 C         1.408149         1.294894        -4.413255
 O         2.461299         0.422189        -3.943014
 C         2.415729         1.936266        -1.952275
 C         2.243207         1.256496        -0.613231
 O         2.454607        -0.198244        -0.733460
 H        -0.568237        -1.002723         0.096346
 H         0.945999        -0.557939         1.152953
 H        -0.271505         0.593835         0.898314
 H         0.811297        -0.910641        -2.524870
 H        -0.404756         0.498684        -2.348367
 H         0.436348         0.811579        -4.705961
 H         1.726311         2.316348        -4.753441
 H         3.528133         1.951942        -2.229753
 H         2.002404         2.958354        -2.026947
 H         2.634619         1.807655         0.124790
