19
Iteration:  4330
 C         0.332878        -0.210287         0.489661
 C         1.183598         0.134505        -0.756207
 C         0.489142         0.286571        -2.129243
 C         1.544695         1.070098        -2.985979
 C         1.670649         1.305385        -4.485488
 O         2.435536         0.248999        -3.829629
 C         2.182024         2.070448        -1.898957
 C         2.176743         1.137581        -0.620572
 O         2.595375        -0.196725        -0.853044
 H        -0.492362        -0.872849         0.231595
 H         0.922134        -0.551091         1.430297
 H        -0.091939         0.738182         0.721701
 H         0.128293        -0.566526        -2.589085
 H        -0.243983         1.124456        -1.987014
 H         1.010639         0.873702        -5.202376
 H         2.292061         2.083654        -4.847439
 H         3.080812         2.610000        -2.255192
 H         1.440354         2.845114        -1.902026
 H         2.360356         1.655033         0.342938
