19
Iteration:  3090
 C         0.062501        -0.127972         0.273536
 C         1.194838         0.301410        -0.651065
 C         0.746540         0.062615        -2.121886
 C         1.645231         0.940711        -2.987324
 C         1.324665         1.497119        -4.311708
 O         2.298956         0.420436        -4.153441
 C         2.568029         1.851607        -2.042388
 C         2.322153         1.219066        -0.596346
 O         2.529370        -0.235493        -0.500435
 H         0.271798        -0.932814         0.901851
 H        -0.032588         0.626423         1.006129
 H        -0.994921        -0.302886        -0.170235
 H         0.902145        -1.101394        -2.144414
 H        -0.382073         0.304955        -2.269327
 H         0.392396         1.156333        -4.816156
 H         1.737685         2.434718        -4.714403
 H         3.583111         1.630300        -2.225390
 H         2.177561         2.835508        -1.934285
 H         2.580065         1.775386         0.453035
