19
Iteration:  4700
 C         0.204762        -0.225604         0.370036
 C         1.094177         0.193463        -0.641589
 C         0.701173         0.227929        -2.160045
 C         1.681444         0.988725        -2.967312
 C         1.383820         1.381099        -4.323941
 O         2.412264         0.480397        -4.112313
 C         2.452575         1.805089        -2.032138
 C         2.205876         1.229752        -0.690327
 O         2.522605        -0.193353        -0.518284
 H         0.655298        -0.663305         1.334549
 H        -0.505029         0.586970         0.643334
 H        -0.408918        -1.029560         0.055572
 H         0.518803        -0.853267        -2.567306
 H        -0.303323         0.783546        -2.211336
 H         0.546132         0.912291        -4.860030
 H         1.502043         2.445407        -4.652608
 H         3.507114         1.671643        -2.257108
 H         2.209838         2.860796        -1.952316
 H         2.491845         1.808470         0.281463
