19
Iteration:  4690
 C         0.141902        -0.206200         0.329633
 C         1.181562         0.259279        -0.781686
 C         0.751535         0.171622        -2.165544
 C         1.732086         0.931682        -2.973534
 C         1.228550         1.398137        -4.283355
 O         2.414628         0.468428        -4.066505
 C         2.469794         1.821581        -1.984764
 C         2.228513         1.205828        -0.643680
 O         2.505384        -0.197241        -0.479068
 H         0.785751        -0.723813         1.168540
 H        -0.411801         0.637733         0.763926
 H        -0.493109        -0.874130        -0.182077
 H         0.466120        -0.793909        -2.744966
 H        -0.232143         0.788035        -2.278964
 H         0.309911         0.948005        -4.743991
 H         1.709920         2.336744        -4.696456
 H         3.541628         1.913328        -2.334773
 H         2.106993         2.854374        -2.012601
 H         2.545828         1.909042         0.212531
