19
Iteration:  3107
 C         0.133567        -0.084015         0.401028
 C         1.155426         0.241112        -0.692448
 C         0.721973        -0.022976        -2.164951
 C         1.662007         0.965757        -2.960000
 C         1.407493         1.544896        -4.296816
 O         2.257436         0.416089        -4.170700
 C         2.516686         1.670254        -2.030711
 C         2.252514         1.250553        -0.631765
 O         2.527643        -0.134375        -0.472954
 H         0.322350        -1.206485         0.639783
 H        -0.033414         0.730384         1.211046
 H        -0.772034        -0.252446        -0.166431
 H         1.003856        -0.881215        -2.676149
 H        -0.270036         0.289269        -2.312088
 H         0.494861         1.510451        -4.875359
 H         1.941018         2.499788        -4.412838
 H         3.661010         1.686441        -2.257140
 H         2.256530         2.810615        -2.106864
 H         2.487816         1.836340         0.147537
