19
Iteration:  3843charge 0 multiplicity 1
 C         0.319327        -0.299104         0.353693
 C         1.155231         0.283909        -0.812641
 C         0.555800         0.387892        -2.174253
 C         1.595117         1.082656        -2.891209
 C         1.541538         1.222525        -4.310211
 O         2.421912         0.209140        -3.779816
 C         2.355554         1.972943        -1.964831
 C         2.218204         1.251532        -0.675046
 O         2.512679        -0.151399        -0.802107
 H        -0.483717        -1.029360        -0.085412
 H         1.027915        -1.030257         1.015786
 H        -0.281355         0.401853         0.878894
 H         0.205197        -0.591651        -2.699246
 H        -0.321354         1.162101        -2.075189
 H         0.588006         0.785265        -4.694049
 H         1.953176         2.082207        -4.887286
 H         3.355115         2.317625        -2.295689
 H         1.561310         2.802838        -2.041521
 H         2.412027         1.664713         0.273056
