19
Iteration:  3176
 C         0.100191        -0.135057         0.359013
 C         1.162734         0.255309        -0.607307
 C         0.745725         0.000976        -2.193460
 C         1.652781         0.931493        -2.987081
 C         1.271045         1.437169        -4.303364
 O         2.368826         0.497958        -4.139124
 C         2.619848         1.800765        -2.042642
 C         2.238303         1.258311        -0.660238
 O         2.503909        -0.180010        -0.462344
 H        -0.427873        -0.846614        -0.190463
 H         0.398864        -0.418202         1.312868
 H        -0.696799         0.764834         0.459060
 H         0.802683        -1.094428        -2.243757
 H        -0.311114         0.284269        -2.270691
 H         0.344907         1.009953        -4.738170
 H         1.576796         2.378936        -4.749673
 H         3.697352         1.768299        -2.291625
 H         2.393301         2.954471        -2.282306
 H         2.625953         1.844451         0.224613
