19
Iteration:   197charge 0 multiplicity 1
 C         0.037808         0.242493         0.335159
 C         1.122543         0.179383        -0.783168
 C         0.771916        -0.130811        -2.265911
 C         1.755339         0.944238        -3.002574
 C         1.281479         1.682669        -4.201026
 O         2.201207         0.629067        -4.330119
 C         2.763090         1.589621        -1.900029
 C         2.309401         1.020498        -0.582319
 O         2.432411        -0.333265        -0.356761
 H        -0.675196        -0.609598         0.081488
 H         0.638092        -0.035639         1.331719
 H        -0.445217         1.144458         0.582127
 H         0.792071        -1.138973        -2.689970
 H        -0.292595         0.218253        -2.321141
 H         0.346480         1.422302        -4.621319
 H         1.660163         2.644227        -4.343122
 H         3.805330         1.300408        -2.097228
 H         2.849293         2.674955        -2.078319
 H         2.530931         1.625859         0.321847
