19
Iteration:  1313charge 0 multiplicity 1
 C        -0.064892        -0.070906         0.199130
 C         1.152424         0.261970        -0.742632
 C         0.848989        -0.015192        -2.148807
 C         1.775220         0.885893        -2.914533
 C         1.258727         1.549951        -4.125327
 O         2.129245         0.382142        -4.222354
 C         2.757586         1.744158        -2.020778
 C         2.297747         1.241819        -0.600095
 O         2.546565        -0.116114        -0.466004
 H         0.140503         0.228553         1.324848
 H        -0.805482         0.619958        -0.190361
 H        -0.315742        -1.058059         0.168022
 H         1.135629        -1.044410        -2.290946
 H        -0.149009         0.254998        -2.465578
 H         0.205924         1.400967        -4.417045
 H         1.704292         2.539452        -4.425331
 H         3.735747         1.358031        -2.171481
 H         2.546324         2.749491        -2.198702
 H         2.529403         1.840503         0.298118
