19
Iteration:  4940
 O         0.188384        -0.078424         4.524783
 C         0.311415        -0.336627         3.162206
 C         0.588870        -1.818228         2.881212
 C        -0.718766        -1.165332         2.519260
 C        -0.894007        -0.650612         1.145549
 C         0.355362         0.289126         0.942526
 C         0.528274         1.114834        -0.260846
 O         1.244612        -0.131468        -0.160921
 C         0.931134         0.708778         2.268114
 H         0.093387         0.903737         4.602737
 H         1.343987        -2.254357         2.172244
 H         0.511378        -2.365715         3.833199
 H        -1.524084        -1.372500         3.246798
 H        -1.079820        -1.267205         0.277152
 H        -1.734252         0.094050         1.268375
 H        -0.187873         0.999502        -1.040721
 H         1.167420         1.971504        -0.207307
 H         2.061200         0.568606         2.388115
 H         0.698929         1.798295         2.460935
