19
Iteration:  4160
 O         0.355788        -0.041302         4.582781
 C         0.350500        -0.353430         3.167257
 C         0.291830        -1.854475         2.838635
 C        -0.860585        -1.056405         2.535249
 C        -0.948568        -0.420567         1.075526
 C         0.384693         0.359162         0.956942
 C         0.620576         1.011234        -0.371388
 O         1.330564        -0.227714        -0.077791
 C         1.045924         0.629042         2.286024
 H        -0.430946        -0.306245         5.147666
 H         0.954538        -2.145641         1.979765
 H         0.197260        -2.493245         3.723772
 H        -1.696711        -1.208225         3.166010
 H        -1.129638        -1.136273         0.224675
 H        -1.898679         0.188645         1.038659
 H        -0.338823         1.072084        -0.960155
 H         1.304075         1.823967        -0.584714
 H         2.157269         0.511271         2.200986
 H         0.806963         1.651103         2.847754
