19
Iteration:   609charge 0 multiplicity 1
 O         0.328513        -0.055571         4.523705
 C         0.397118        -0.475656         3.200767
 C         0.060199        -1.943180         2.953711
 C        -0.944179        -0.888200         2.511866
 C        -0.992049        -0.215290         1.175035
 C         0.445846         0.279634         0.868706
 C         0.895562         1.079899        -0.361962
 O         1.297127        -0.254107        -0.112584
 C         1.114244         0.458806         2.239824
 H        -0.526716         0.398791         4.590928
 H         0.487108        -2.606361         2.196454
 H        -0.280336        -2.616237         3.802839
 H        -1.844581        -0.796293         3.141734
 H        -1.224904        -1.026543         0.404934
 H        -1.753371         0.650927         1.200709
 H         0.316969         1.121161        -1.317271
 H         1.514707         1.934997         0.007443
 H         2.197007         0.332023         2.189387
 H         0.902441         1.431413         2.869206
