19
Iteration:  4722
 O         0.373097        -0.011728         4.582206
 C         0.326764        -0.350483         3.188747
 C         0.552827        -1.784773         2.771611
 C        -0.767837        -1.100506         2.458064
 C        -1.034274        -0.425048         1.087979
 C         0.284159         0.301217         0.950316
 C         0.675310         1.089696        -0.217797
 O         1.265021        -0.329083         0.006602
 C         0.884135         0.684652         2.194335
 H        -0.465049        -0.315815         4.967084
 H         1.304404        -2.105157         2.047261
 H         0.405371        -2.518300         3.611953
 H        -1.539210        -1.695024         2.933818
 H        -1.123200        -1.158069         0.361926
 H        -1.890220         0.303285         1.026317
 H        -0.110248         1.082677        -0.995693
 H         1.397221         1.804368        -0.375302
 H         1.952339         0.961312         2.140978
 H         0.322049         1.543862         2.390853
