19
Iteration:   862charge 0 multiplicity 1
 O         0.220145        -0.148241         4.573065
 C         0.357183        -0.378739         3.187588
 C         0.214452        -1.827191         2.799568
 C        -1.005651        -0.844836         2.527562
 C        -1.018001        -0.237796         1.161258
 C         0.386418         0.311908         0.919264
 C         0.931369         1.008085        -0.331245
 O         1.293175        -0.379241        -0.137291
 C         1.102470         0.578733         2.286144
 H         0.897453        -0.651058         5.131836
 H         0.751538        -2.418598         2.147945
 H         0.080589        -2.365361         3.734045
 H        -1.866349        -0.731635         3.241109
 H        -1.251996        -0.973171         0.428463
 H        -1.770071         0.537974         1.140039
 H         0.144035         1.277773        -1.028200
 H         1.768697         1.659225        -0.157798
 H         2.130200         0.553147         2.159908
 H         0.788411         1.649424         2.348206
