19
Iteration:  1270
 O         0.277182        -0.139575         4.656379
 C         0.309564        -0.365403         3.254593
 C         0.048908        -1.804731         2.848249
 C        -0.964259        -0.721772         2.583129
 C        -0.915428        -0.415728         1.013448
 C         0.479705         0.184534         0.874291
 C         0.808389         1.094282        -0.224570
 O         1.297786        -0.269660        -0.247268
 C         1.140043         0.540030         2.281643
 H         0.601085        -0.813203         5.285481
 H         0.713640        -2.324855         1.974557
 H        -0.129501        -2.445015         3.738308
 H        -1.934753        -0.589352         3.092624
 H        -1.000846        -1.303095         0.499725
 H        -1.636308         0.252780         0.486356
 H         0.009039         1.391921        -0.918826
 H         1.677646         1.765442        -0.130432
 H         2.136043         0.260282         2.300940
 H         0.988587         1.644960         2.279103
