19
Iteration:    46
 O         0.491485        -0.237170         4.584674
 C         0.238544        -0.322981         3.193935
 C         0.087119        -1.778112         2.800660
 C        -1.112984        -0.835825         2.560217
 C        -0.989462        -0.316086         1.107777
 C         0.406184         0.326492         0.859190
 C         0.993055         1.007009        -0.368583
 O         1.367967        -0.373261         0.018695
 C         0.890044         0.676491         2.273355
 H         1.306924        -0.685847         4.774907
 H         0.542810        -2.215188         1.851013
 H         0.051797        -2.523528         3.584204
 H        -2.085977        -0.966922         3.094615
 H        -1.111816        -1.103742         0.410807
 H        -1.804274         0.417234         0.971691
 H         0.524442         0.841231        -1.294746
 H         1.684416         1.884764        -0.276663
 H         2.003777         0.750957         2.370623
 H         0.496770         1.705885         2.471501
