19
Iteration:  4530charge 0 multiplicity 1
 O         0.282924        -0.194795         4.575912
 C         0.373873        -0.375199         3.229965
 C         0.405323        -1.758568         2.857496
 C        -0.854335        -0.913208         2.524023
 C        -0.971032        -0.452361         1.139908
 C         0.358804         0.314954         0.931344
 C         0.695431         1.019957        -0.396726
 O         1.267304        -0.244500        -0.098348
 C         0.993041         0.611207         2.284066
 H        -0.003874         0.754200         4.652764
 H         1.115625        -2.085376         2.107769
 H         0.292403        -2.575109         3.543250
 H        -1.674731        -1.352503         3.087346
 H        -1.200370        -1.178216         0.269944
 H        -1.729799         0.300194         1.129559
 H        -0.219584         1.165229        -1.094355
 H         1.484948         1.815142        -0.383557
 H         2.072511         0.662766         2.276365
 H         0.557898         1.578422         2.655549
