19
Iteration:  2650charge 0 multiplicity 1
 O         0.288857         0.010657         4.610450
 C         0.299809        -0.468439         3.321374
 C        -0.008739        -1.872066         2.922417
 C        -0.981309        -0.833499         2.529620
 C        -0.825035        -0.442477         1.039778
 C         0.524750         0.260203         0.906738
 C         0.742558         1.150605        -0.266860
 O         1.289189        -0.211386        -0.343562
 C         1.143519         0.459744         2.336676
 H         0.819666        -0.628302         5.159297
 H         0.542656        -2.413411         2.143392
 H        -0.360156        -2.471234         3.695593
 H        -1.950962        -0.679842         3.164144
 H        -0.676841        -1.327784         0.382754
 H        -1.615763         0.189182         0.434081
 H        -0.083245         1.272483        -1.011179
 H         1.592718         1.917263        -0.288705
 H         2.255912         0.216306         2.520293
 H         0.987232         1.519617         2.771534
