19
Iteration:  4889
 O         0.188347         0.071832         4.565011
 C         0.399182        -0.401942         3.277783
 C         0.525175        -1.827566         2.835838
 C        -0.776749        -1.140999         2.495432
 C        -0.929979        -0.579775         1.190452
 C         0.342261         0.309340         0.883096
 C         0.572837         1.068013        -0.382822
 O         1.267669        -0.127918        -0.144501
 C         0.928420         0.680108         2.299853
 H         0.625895        -0.631226         5.117769
 H         1.237785        -1.925209         2.010001
 H         0.455570        -2.655100         3.557650
 H        -1.616930        -1.716568         2.981148
 H        -0.949202        -1.412598         0.452781
 H        -1.813399         0.031235         1.003310
 H        -0.192427         0.934904        -1.133004
 H         1.216973         2.021551        -0.253942
 H         2.010776         0.778355         2.433690
 H         0.499984         1.623345         2.628681
