19
Iteration:   206
 O         0.420277        -0.059694         4.564293
 C         0.266381        -0.410842         3.189770
 C         0.079942        -1.793447         2.782150
 C        -1.035889        -0.788054         2.509970
 C        -1.029240        -0.292484         1.084796
 C         0.439139         0.223582         0.898468
 C         0.850132         0.940037        -0.330973
 O         1.440483        -0.274040        -0.006986
 C         0.994594         0.536180         2.316097
 H         0.957687        -0.665349         5.064324
 H         0.748823        -2.200142         2.043252
 H        -0.130568        -2.558642         3.516826
 H        -2.004456        -1.030995         3.028871
 H        -1.396786        -1.070055         0.300387
 H        -1.632572         0.703925         1.005096
 H         0.114766         0.755597        -1.194521
 H         1.323912         1.883999        -0.197578
 H         2.061975         0.306787         2.261940
 H         0.919045         1.663090         2.577803
