19
Iteration:  3020charge 0 multiplicity 1
 O         0.337325        -0.090759         4.589461
 C         0.306897        -0.427883         3.189101
 C         0.185633        -1.905980         2.796130
 C        -0.909153        -0.936779         2.467416
 C        -1.049707        -0.144130         1.151428
 C         0.375515         0.380568         0.906626
 C         0.905905         0.942830        -0.362307
 O         1.337652        -0.338667         0.011647
 C         1.006856         0.646262         2.219708
 H         0.400233        -0.956205         5.060534
 H         0.732566        -2.455535         2.067298
 H        -0.063164        -2.505219         3.665666
 H        -1.829043        -1.129286         2.943714
 H        -1.257126        -0.656406         0.250580
 H        -1.764510         0.641604         1.316935
 H         0.238961         0.774319        -1.261283
 H         1.642934         1.758197        -0.268729
 H         2.092429         0.600010         2.302679
 H         0.656444         1.568423         2.612918
