19
Iteration:   305
 O         0.147662         0.114381         4.519420
 C         0.314407        -0.460135         3.271857
 C         0.298892        -1.944803         2.852862
 C        -0.968588        -1.009703         2.436365
 C        -1.048639        -0.138821         1.158250
 C         0.483560         0.319073         0.863072
 C         0.843581         1.054381        -0.304723
 O         1.265844        -0.328828        -0.100577
 C         1.157186         0.300807         2.307897
 H         0.774876         0.758850         4.903623
 H         1.109174        -2.217136         2.185164
 H        -0.033391        -2.759248         3.565476
 H        -1.888807        -1.078715         3.003586
 H        -1.395076        -0.688059         0.302419
 H        -1.470258         0.847460         1.371491
 H         0.009396         1.250702        -0.944188
 H         1.404597         1.973817        -0.284331
 H         2.185203        -0.067056         2.111520
 H         1.224685         1.379493         2.777228
