19
Iteration:   822charge 0 multiplicity 1
 O         0.206762         0.064103         4.623316
 C         0.276499        -0.456226         3.208545
 C         0.381953        -1.806565         2.599062
 C        -0.884098        -1.004053         2.394500
 C        -1.082717        -0.096218         1.138888
 C         0.450136         0.431995         1.006410
 C         0.979452         0.880114        -0.309861
 O         1.096524        -0.467894        -0.022395
 C         1.082006         0.532189         2.317721
 H         0.698628        -0.535336         5.166206
 H         1.156716        -1.968276         1.767229
 H         0.284881        -2.535147         3.396846
 H        -1.821861        -1.469769         2.888109
 H        -1.358948        -0.508936         0.166701
 H        -1.839198         0.746047         1.440463
 H         0.176945         1.109018        -1.052602
 H         1.822293         1.530043        -0.347854
 H         2.197717         0.251779         2.546557
 H         0.889121         1.491229         2.874589
