19
Iteration:  4055charge 0 multiplicity 1
 O         0.227172        -0.120999         4.571371
 C         0.357056        -0.346509         3.171897
 C         0.420210        -1.790359         2.587595
 C        -0.768299        -1.025657         2.530238
 C        -0.991965        -0.279856         1.220142
 C         0.303623         0.381199         0.905051
 C         0.770800         0.866549        -0.315612
 O         1.296560        -0.392798         0.097409
 C         0.844391         0.816874         2.241744
 H         1.047737        -0.563872         4.968971
 H         1.096565        -1.942272         1.664501
 H         0.452474        -2.639448         3.318967
 H        -1.692655        -1.336295         3.101763
 H        -1.384900        -0.771749         0.379401
 H        -1.666944         0.514767         1.452545
 H         0.069658         0.702548        -1.183834
 H         1.461445         1.668891        -0.344802
 H         1.921975         0.725439         2.135389
 H         0.588238         1.818577         2.445527
