19
Iteration:  1695charge 0 multiplicity 1
 O         0.115642         0.125555         4.530767
 C         0.321259        -0.432712         3.228437
 C         0.141437        -1.930200         2.899280
 C        -0.911038        -0.879008         2.524294
 C        -0.976235        -0.301998         1.116696
 C         0.531958         0.147175         0.901793
 C         0.891607         1.132529        -0.077962
 O         1.182842        -0.227718        -0.379504
 C         1.282641         0.371078         2.281094
 H        -0.028683        -0.619149         5.095265
 H         0.873560        -2.204590         2.073509
 H         0.064626        -2.634738         3.691900
 H        -1.889450        -1.103014         3.134493
 H        -1.328451        -1.104865         0.418335
 H        -1.620950         0.425135         0.920663
 H        -0.006669         1.692807        -0.493285
 H         1.670072         1.837310         0.090299
 H         2.302657         0.031870         2.251020
 H         1.311575         1.463071         2.624725
