19
Iteration:   777charge 0 multiplicity 1
 O         0.170349        -0.264579         4.584636
 C         0.385817        -0.332307         3.210642
 C         0.286843        -1.835335         2.683185
 C        -0.859859        -0.834150         2.510292
 C        -1.039014        -0.092595         1.162571
 C         0.384448         0.356617         0.893947
 C         0.911643         0.880203        -0.366527
 O         1.260218        -0.459249         0.033749
 C         1.011159         0.691709         2.299410
 H         1.018748        -0.294748         5.030605
 H         0.667650        -2.275809         1.802714
 H         0.058994        -2.555917         3.502254
 H        -1.828063        -0.843740         3.135917
 H        -1.362065        -0.782071         0.424695
 H        -1.837609         0.784788         1.202944
 H         0.250055         0.936307        -1.230718
 H         1.803895         1.446298        -0.435692
 H         2.155764         0.780960         2.091461
 H         0.714584         1.789380         2.589020
