19
Iteration:  2651charge 0 multiplicity 1
 O         0.294863         0.025970         4.606293
 C         0.284405        -0.471192         3.318919
 C        -0.006581        -1.885128         2.919288
 C        -0.977816        -0.834934         2.531718
 C        -0.819242        -0.435021         1.043876
 C         0.521383         0.258993         0.897679
 C         0.734182         1.155889        -0.261831
 O         1.293533        -0.210776        -0.344447
 C         1.143355         0.444922         2.342327
 H         0.811179        -0.645419         5.152447
 H         0.526211        -2.409526         2.132004
 H        -0.359639        -2.462859         3.723069
 H        -1.981786        -0.706888         3.183180
 H        -0.663605        -1.307393         0.379602
 H        -1.601267         0.165408         0.477128
 H        -0.077369         1.270769        -1.028863
 H         1.642470         1.929483        -0.267952
 H         2.252365         0.241260         2.525818
 H         0.987469         1.511491         2.748222
