19
Iteration:  4052charge 0 multiplicity 1
 O         0.223865        -0.140920         4.564714
 C         0.335722        -0.347953         3.185249
 C         0.441946        -1.797455         2.606208
 C        -0.807085        -1.008031         2.510186
 C        -0.991128        -0.278732         1.250729
 C         0.333313         0.356761         0.894716
 C         0.759880         0.885295        -0.336791
 O         1.304263        -0.394720         0.106875
 C         0.853972         0.816005         2.223197
 H         1.063190        -0.453844         4.938415
 H         1.067715        -1.948464         1.634252
 H         0.509489        -2.587636         3.338180
 H        -1.656027        -1.252272         3.054555
 H        -1.314149        -0.827864         0.361667
 H        -1.695504         0.540854         1.595387
 H        -0.000067         0.741730        -1.118827
 H         1.475606         1.733194        -0.381487
 H         1.926708         0.731707         2.098317
 H         0.556452         1.802405         2.463485
