19
Iteration:  4608
 O         0.292139         0.106299         4.548607
 C         0.343100        -0.397267         3.268920
 C         0.389804        -1.876252         2.882347
 C        -0.755253        -1.087392         2.479781
 C        -0.959678        -0.499429         1.179003
 C         0.358438         0.260552         0.885051
 C         0.694709         1.139332        -0.258241
 O         1.210358        -0.153385        -0.156520
 C         0.992942         0.533728         2.217151
 H        -0.227717        -0.569214         5.021660
 H         1.199911        -2.232943         2.313596
 H         0.018122        -2.657595         3.585395
 H        -1.650627        -1.349743         3.037391
 H        -1.094380        -1.366627         0.403639
 H        -1.819144         0.119853         1.080482
 H         0.043665         1.256052        -1.169974
 H         1.429410         2.074177        -0.187387
 H         2.069405         0.426026         2.060932
 H         0.733846         1.609893         2.455515
