19
Iteration:  2140charge 0 multiplicity 1
 O         0.277833        -0.189499         4.600362
 C         0.279345        -0.411398         3.215290
 C         0.195444        -1.806144         2.707632
 C        -0.960173        -0.927652         2.462784
 C        -0.956678        -0.123454         1.155780
 C         0.443504         0.416508         0.946330
 C         0.797873         0.885918        -0.450800
 O         1.343719        -0.370127         0.036943
 C         1.010932         0.657923         2.336699
 H         1.097749        -0.518596         5.050803
 H         0.790129        -2.012681         1.841778
 H         0.054882        -2.596162         3.399318
 H        -1.799322        -1.132048         3.181487
 H        -1.278706        -0.639816         0.233170
 H        -1.754854         0.646995         1.034722
 H         0.164215         0.617008        -1.346876
 H         1.562983         1.678384        -0.595642
 H         2.120295         0.448266         2.471634
 H         0.879776         1.585002         2.778469
