19
Iteration:  2038charge 0 multiplicity 1
 O         0.055498         0.050094         4.529006
 C         0.326274        -0.462565         3.254891
 C         0.141959        -1.967739         2.945865
 C        -0.898049        -0.864946         2.454581
 C        -0.916521        -0.263887         1.103433
 C         0.463673         0.209098         0.909243
 C         0.745366         1.140595        -0.173359
 O         1.254318        -0.212496        -0.244528
 C         1.305367         0.298888         2.259883
 H         0.889493         0.154496         4.972774
 H         0.912729        -2.413463         2.255819
 H        -0.289734        -2.492650         3.851374
 H        -1.597649        -0.699252         3.258069
 H        -1.080635        -1.014972         0.266662
 H        -1.609955         0.737664         1.066545
 H         0.092258         1.493902        -0.914184
 H         1.448969         1.921597        -0.130895
 H         2.231856        -0.145921         2.024506
 H         1.524298         1.406207         2.460837
