19
Iteration:  2037charge 0 multiplicity 1
 O         0.049468         0.045421         4.530643
 C         0.323056        -0.467189         3.251445
 C         0.142307        -1.961711         2.945553
 C        -0.900260        -0.855853         2.445977
 C        -0.919766        -0.267203         1.106841
 C         0.466378         0.211078         0.907770
 C         0.733830         1.140189        -0.171982
 O         1.253054        -0.219006        -0.254838
 C         1.322313         0.297621         2.261358
 H         0.858520         0.153824         5.011919
 H         0.944267        -2.399283         2.262651
 H        -0.262909        -2.484890         3.866039
 H        -1.597641        -0.659677         3.280166
 H        -1.045065        -1.024853         0.287719
 H        -1.586316         0.733572         1.090462
 H         0.100182         1.479650        -0.888036
 H         1.461310         1.934099        -0.063885
 H         2.237779        -0.150782         2.050185
 H         1.529792         1.454246         2.442208
