19
Iteration:  2188charge 0 multiplicity 1
 O         0.201178        -0.164934         4.527646
 C         0.309411        -0.366237         3.142069
 C         0.395703        -1.845015         2.588648
 C        -0.915266        -0.919562         2.506787
 C        -1.066289        -0.148930         1.215717
 C         0.364035         0.362756         0.956095
 C         1.099840         0.852259        -0.315848
 O         1.078660        -0.453049         0.058789
 C         1.017938         0.732366         2.313711
 H         1.004561         0.042395         4.979808
 H         0.881915        -1.959353         1.582752
 H         0.494366        -2.745368         3.301440
 H        -1.782650        -1.147229         3.052923
 H        -1.616579        -0.615975         0.415013
 H        -1.701129         0.665132         1.352635
 H         0.486951         1.199826        -1.176395
 H         2.132620         1.403134        -0.051035
 H         2.070767         0.805112         2.287113
 H         0.582145         1.641744         2.713334
