19
Iteration:  2697charge 0 multiplicity 1
 O         0.276021         0.209268         4.436117
 C         0.308710        -0.445146         3.170457
 C         0.158949        -1.934174         3.072917
 C        -0.925889        -0.944362         2.463891
 C        -1.050285        -0.378518         1.056207
 C         0.381888         0.257950         0.919799
 C         0.819327         1.228087        -0.094774
 O         1.337399        -0.154405        -0.195639
 C         1.228334         0.171774         2.141612
 H        -0.125913        -0.471447         5.026115
 H         0.791554        -2.582760         2.492304
 H        -0.124546        -2.384432         4.072437
 H        -1.984858        -0.974148         2.891478
 H        -1.233253        -1.191972         0.338274
 H        -1.853591         0.295673         0.947042
 H         0.180471         1.612248        -0.949981
 H         1.401046         2.044985         0.591182
 H         2.139455        -0.400446         2.070543
 H         1.455728         1.145935         2.621626
