19
Iteration:  4290
 O         0.287511         0.046756         4.603449
 C         0.376920        -0.418804         3.267839
 C         0.233165        -1.858271         2.896397
 C        -0.913716        -1.004824         2.567222
 C        -0.893681        -0.515524         1.114554
 C         0.464227         0.208975         0.881557
 C         0.555607         1.141066        -0.325080
 O         1.310241        -0.116121        -0.189750
 C         1.120967         0.538459         2.206820
 H        -0.016608        -0.706985         5.162289
 H         0.832659        -2.523792         2.316003
 H         0.254903        -2.553711         3.803961
 H        -1.887310        -1.074273         3.038538
 H        -0.824150        -1.456242         0.380109
 H        -1.672584         0.226966         0.934101
 H        -0.247180         1.257114        -1.128932
 H         1.030757         2.122966        -0.232285
 H         2.216462         0.473154         2.240829
 H         0.940278         1.686161         2.276281
