19
Iteration:  1745charge 0 multiplicity 1
 O         0.419592         0.026920         4.565272
 C         0.274137        -0.468176         3.232715
 C         0.052501        -1.863661         2.928567
 C        -0.971317        -0.953680         2.374782
 C        -0.961046        -0.312062         1.024085
 C         0.375008         0.362805         0.938724
 C         0.823724         1.084299        -0.250680
 O         1.389954        -0.256163        -0.087570
 C         1.055676         0.431244         2.275751
 H         0.531089        -0.735434         5.156494
 H         0.630214        -2.579143         2.309215
 H        -0.492553        -2.514073         3.669947
 H        -1.817459        -0.751105         2.961064
 H        -1.078551        -1.003318         0.170881
 H        -1.852432         0.593228         0.873666
 H         0.080212         1.098495        -1.065537
 H         1.620474         1.921298        -0.153318
 H         2.214060         0.286289         2.195400
 H         0.943226         1.412536         2.674346
