19
Iteration:   913
 O         0.422528        -0.041975         4.524224
 C         0.326183        -0.446069         3.198537
 C        -0.051583        -1.863146         2.866405
 C        -1.080262        -0.790596         2.493361
 C        -0.942066        -0.372108         0.969722
 C         0.452883         0.327227         0.958371
 C         0.765845         1.019471        -0.252730
 O         1.391866        -0.255217        -0.065369
 C         1.132958         0.463104         2.334597
 H         1.316917         0.202058         4.838657
 H         0.549528        -2.309885         2.071145
 H        -0.382460        -2.666590         3.618448
 H        -1.972989        -0.870651         3.037565
 H        -1.038613        -1.202729         0.131898
 H        -1.760557         0.342551         0.924952
 H        -0.067867         0.974460        -1.002929
 H         1.320537         2.049218        -0.163496
 H         2.254720         0.146170         2.328506
 H         1.015036         1.462176         2.778490
