19
Iteration:  2217charge 0 multiplicity 1
 O         0.269837        -0.179320         4.624126
 C         0.307776        -0.344377         3.258455
 C         0.371897        -1.746979         2.733564
 C        -0.895141        -0.873511         2.421220
 C        -1.056713        -0.116602         1.111482
 C         0.317972         0.358805         0.909298
 C         1.037705         0.886447        -0.280295
 O         1.127436        -0.485273        -0.053721
 C         1.007066         0.655396         2.264466
 H         0.929598        -0.658852         5.186262
 H         1.031908        -2.038912         1.937890
 H         0.124905        -2.656820         3.237786
 H        -1.817431        -1.248360         2.919915
 H        -1.267634        -0.821136         0.279689
 H        -1.897051         0.695776         1.147745
 H         0.385305         1.252090        -1.064233
 H         1.800139         1.486150         0.177368
 H         2.156547         0.534477         2.117296
 H         0.610679         1.679059         2.641113
