19
Iteration:  3425
 O         0.188068         0.044811         4.613243
 C         0.236298        -0.401912         3.242881
 C         0.369296        -1.914222         2.824836
 C        -0.942780        -0.966004         2.413724
 C        -1.047010        -0.102805         1.142915
 C         0.476364         0.284200         0.922109
 C         0.793711         1.034557        -0.253065
 O         1.275688        -0.439380        -0.150676
 C         1.101513         0.501674         2.258654
 H         0.860506        -0.519604         5.094659
 H         1.222740        -2.152062         2.176811
 H        -0.107353        -2.699175         3.514038
 H        -1.863178        -1.275296         2.868861
 H        -1.497158        -0.399457         0.189505
 H        -1.561284         0.906351         1.472844
 H         0.220840         1.134782        -1.121516
 H         1.571781         1.838101        -0.276053
 H         2.162012         0.089679         2.180440
 H         1.222119         1.586073         2.597870
