19
Iteration:  2953
 O         0.277508        -0.340310         4.552669
 C         0.336398        -0.335680         3.139238
 C         0.355524        -1.692611         2.674418
 C        -0.945277        -0.812824         2.551225
 C        -1.098628        -0.191660         1.134377
 C         0.313825         0.351972         0.897815
 C         1.016633         0.874687        -0.363246
 O         1.243757        -0.392635         0.160841
 C         0.945188         0.685019         2.257269
 H         1.155030        -0.308675         4.986386
 H         0.769919        -2.011996         1.738998
 H         0.337843        -2.400618         3.448704
 H        -1.823357        -1.090730         3.165615
 H        -1.391898        -0.930004         0.428960
 H        -1.789344         0.622406         1.025721
 H         0.481839         0.677422        -1.385083
 H         1.739375         1.661205        -0.104296
 H         2.036652         0.691923         2.153968
 H         0.561503         1.685860         2.364773
