19
Iteration:  1052
 O         0.331269        -0.230643         4.604832
 C         0.270408        -0.395948         3.169860
 C         0.143142        -1.771028         2.766292
 C        -1.053192        -0.781506         2.532491
 C        -0.953440        -0.234022         1.130015
 C         0.486825         0.289744         0.883991
 C         0.903430         0.967709        -0.259526
 O         1.283435        -0.437242        -0.131456
 C         1.005027         0.703339         2.343952
 H         1.257901        -0.084381         4.728530
 H         0.598681        -2.253962         1.845000
 H         0.064635        -2.438136         3.729981
 H        -1.985327        -1.133464         2.883021
 H        -1.103158        -0.930648         0.336488
 H        -1.678352         0.632298         1.027778
 H         0.236764         1.256412        -1.067124
 H         1.889840         1.490998        -0.234307
 H         2.107590         0.523833         2.498363
 H         0.653171         1.700056         2.599156
