19
Iteration:  2099charge 0 multiplicity 1
 O         0.313768        -0.105466         4.620062
 C         0.362206        -0.394830         3.202642
 C         0.121508        -1.756326         2.807784
 C        -0.974859        -0.814482         2.481670
 C        -0.966832        -0.358005         1.057754
 C         0.404264         0.219607         0.862756
 C         0.838692         1.154674        -0.203626
 O         1.307430        -0.364886        -0.109667
 C         1.044044         0.523509         2.275394
 H         0.846765        -0.829994         4.912387
 H         0.881790        -2.265185         2.191430
 H        -0.052220        -2.411189         3.668393
 H        -1.980054        -0.716009         3.018921
 H        -1.081525        -1.253302         0.381532
 H        -1.688692         0.393631         0.852404
 H         0.262299         1.260324        -1.169951
 H         1.745301         1.754476         0.220192
 H         2.137999         0.659996         2.056320
 H         0.547373         1.467316         2.613114
