19
Iteration:  1164charge 0 multiplicity 1
 O         0.151162        -0.171944         4.737772
 C         0.219683        -0.374778         3.286611
 C         0.347711        -1.762495         2.698270
 C        -0.919256        -0.912458         2.456108
 C        -0.960100        -0.034090         1.129863
 C         0.422608         0.355626         0.893811
 C         1.021095         0.920292        -0.420805
 O         1.082022        -0.491736        -0.160671
 C         1.079151         0.608030         2.380207
 H         1.087378        -0.367557         5.016523
 H         1.150083        -1.820000         1.966165
 H         0.378651        -2.534099         3.396434
 H        -1.843326        -1.336840         2.916432
 H        -1.246967        -0.867518         0.328652
 H        -1.544382         0.920916         1.223237
 H         0.256601         1.115100        -1.264542
 H         1.886091         1.569029        -0.436410
 H         2.196225         0.126640         2.499111
 H         0.907388         1.630359         2.758935
