19
Iteration:  3704
 O         0.359877        -0.117965         4.553428
 C         0.364083        -0.327732         3.122836
 C         0.357904        -1.776137         2.622591
 C        -0.919521        -0.960686         2.541517
 C        -1.056635        -0.232719         1.090521
 C         0.316323         0.305062         0.949438
 C         0.870929         0.851395        -0.264235
 O         1.331109        -0.459612         0.092053
 C         0.832004         0.809212         2.303234
 H         0.851388        -0.841447         4.954388
 H         0.956228        -1.950876         1.648537
 H         0.331331        -2.672816         3.284129
 H        -1.713215        -1.259225         3.251395
 H        -1.605666        -0.712025         0.184450
 H        -1.735047         0.648196         1.345621
 H         0.401453         1.045853        -1.167103
 H         1.674109         1.620556        -0.242510
 H         1.902074         1.055573         2.099240
 H         0.210474         1.705214         2.654045
