19
Iteration:  3490charge 0 multiplicity 1
 O         0.449008        -0.026460         4.565660
 C         0.286889        -0.435381         3.241856
 C         0.067024        -1.807348         3.006606
 C        -1.030930        -0.812941         2.470357
 C        -0.852222        -0.503639         1.028213
 C         0.459519         0.314700         0.924777
 C         0.776801         1.168831        -0.225607
 O         1.247564        -0.219001        -0.160297
 C         1.109920         0.365509         2.216768
 H        -0.429866         0.254818         4.894292
 H         0.812308        -2.237399         2.279426
 H        -0.323147        -2.545308         3.732472
 H        -1.987469        -0.845020         2.979809
 H        -0.698602        -1.449723         0.500898
 H        -1.682861         0.011049         0.492463
 H         0.092642         1.212940        -1.042624
 H         1.599239         1.968503        -0.206040
 H         2.184766         0.038860         2.180244
 H         0.998860         1.470684         2.472835
