19
Iteration:   764charge 0 multiplicity 1
 O         0.247799        -0.298706         4.605400
 C         0.332736        -0.386044         3.171516
 C         0.183272        -1.774689         2.672701
 C        -0.958465        -0.718564         2.552181
 C        -0.975833        -0.262367         1.159769
 C         0.412604         0.425963         0.918363
 C         0.928547         0.854791        -0.382593
 O         1.267917        -0.457241         0.013405
 C         1.008632         0.744965         2.277204
 H         1.186762        -0.245016         4.974156
 H         0.754785        -1.945916         1.822026
 H         0.073314        -2.550627         3.410118
 H        -1.792479        -0.901519         3.230374
 H        -1.155291        -1.015227         0.413797
 H        -1.809601         0.533795         1.061594
 H         0.301852         1.017725        -1.228626
 H         1.626908         1.733432        -0.372753
 H         2.054087         0.440909         2.368402
 H         0.832001         1.832951         2.717949
