19
Iteration:  1851charge 0 multiplicity 1
 O         0.133856        -0.046389         4.542139
 C         0.345746        -0.478357         3.187327
 C         0.446370        -1.874432         2.545679
 C        -0.798033        -0.914127         2.388941
 C        -1.110615         0.000964         1.244477
 C         0.357272         0.367168         0.937495
 C         0.997949         0.880373        -0.264408
 O         1.144604        -0.538700         0.090815
 C         0.978664         0.625397         2.302927
 H         0.982269         0.069053         5.001587
 H         1.130238        -1.898494         1.646942
 H         0.171262        -2.801617         3.138078
 H        -1.521579        -1.386714         3.006139
 H        -1.530513        -0.352585         0.260667
 H        -1.672582         0.867842         1.691541
 H         0.475329         1.146451        -1.136865
 H         1.906681         1.554794        -0.265532
 H         2.028410         0.723830         2.458493
 H         0.462565         1.567441         2.689586
