19
Iteration:  3616
 O         0.260898         0.096348         4.633659
 C         0.299606        -0.456333         3.198698
 C         0.279977        -1.937595         2.835269
 C        -0.959254        -1.012901         2.563141
 C        -1.034841        -0.301946         1.173842
 C         0.483506         0.224249         0.898849
 C         0.814376         1.106228        -0.229041
 O         1.319265        -0.243768        -0.281575
 C         1.111145         0.432327         2.259196
 H        -0.609941         0.487322         4.555356
 H         0.887139        -2.418926         2.035142
 H         0.060156        -2.459135         3.775983
 H        -1.825775        -1.017312         3.185868
 H        -1.207753        -1.030881         0.305970
 H        -1.747626         0.551122         1.058660
 H        -0.001787         1.257459        -0.933454
 H         1.585959         1.879909        -0.100734
 H         2.209699         0.376673         2.233275
 H         0.948318         1.505577         2.572749
