19
Iteration:  1711
 O         0.215617         0.074370         4.507496
 C         0.258233        -0.406686         3.230850
 C         0.189779        -1.855554         2.907667
 C        -0.991949        -0.940762         2.538919
 C        -0.889417        -0.402881         1.162560
 C         0.478282         0.286121         0.907987
 C         0.938575         1.177240        -0.150115
 O         1.182355        -0.225594        -0.315087
 C         1.130684         0.303347         2.271501
 H         0.073914        -0.612920         5.149769
 H         0.720023        -2.241657         2.063394
 H        -0.115303        -2.545227         3.745687
 H        -1.811395        -0.731291         3.114055
 H        -1.032636        -1.011838         0.272242
 H        -1.786798         0.434494         1.038093
 H         0.442480         1.631222        -0.977754
 H         1.915464         1.778281         0.004717
 H         2.165294        -0.132233         2.286425
 H         1.193291         1.350759         2.507959
