19
Iteration:  4958
 O         0.134698         0.015491         4.586851
 C         0.427339        -0.416042         3.247326
 C         0.627558        -1.863918         2.901587
 C        -0.766655        -1.134424         2.561361
 C        -0.922111        -0.565686         1.102911
 C         0.327035         0.251382         0.810906
 C         0.548945         1.154583        -0.283718
 O         1.279220        -0.136170        -0.139303
 C         0.878349         0.634074         2.254231
 H         0.909018         0.507992         4.948309
 H         1.190753        -1.978546         1.981590
 H         0.749365        -2.603872         3.653943
 H        -1.662681        -1.357764         3.075612
 H        -0.924404        -1.486850         0.367721
 H        -1.903090        -0.103025         0.946829
 H        -0.263937         1.216507        -1.102053
 H         1.187233         2.001249        -0.025921
 H         1.858398         0.946460         2.024266
 H         0.295812         1.494406         2.558516
