19
Iteration:  3650charge 0 multiplicity 1
 O         0.305869        -0.147279         4.659492
 C         0.354810        -0.378614         3.159429
 C         0.254720        -1.851725         2.822623
 C        -0.946861        -0.942550         2.407047
 C        -0.989926        -0.281274         1.057336
 C         0.436562         0.343341         0.919384
 C         0.750837         1.012496        -0.358888
 O         1.272294        -0.318299         0.043642
 C         1.060489         0.606523         2.283248
 H         0.672271         0.760604         4.760611
 H         0.949736        -2.520655         2.174765
 H         0.018330        -2.411792         3.730398
 H        -1.879692        -1.074938         2.932583
 H        -0.982579        -1.127397         0.252689
 H        -1.940053         0.287183         1.000715
 H        -0.026295         0.841201        -1.071617
 H         1.410114         1.946346        -0.510042
 H         2.144767         0.420194         2.127847
 H         0.843941         1.649406         2.601403
