19
Iteration:   918charge 0 multiplicity 1
 O         0.391900        -0.056109         4.503953
 C         0.280248        -0.415238         3.196202
 C        -0.011937        -1.889043         2.862584
 C        -1.039359        -0.781514         2.517660
 C        -0.943015        -0.421945         0.990107
 C         0.397562         0.345137         0.970568
 C         0.808799         1.038710        -0.255497
 O         1.378711        -0.267940        -0.067117
 C         1.174462         0.440484         2.341257
 H         1.295323         0.132190         4.744155
 H         0.533896        -2.334339         2.024816
 H        -0.291453        -2.441427         3.705932
 H        -2.075154        -0.757166         3.051947
 H        -1.074844        -1.126166         0.224598
 H        -1.661330         0.422404         0.804822
 H        -0.032912         1.245884        -0.961193
 H         1.231905         1.995887        -0.144179
 H         2.171607         0.137399         2.273677
 H         1.083861         1.532126         2.537355
