19
Iteration:  1005charge 0 multiplicity 1
 O         0.139415         0.090197         4.481487
 C         0.317090        -0.452909         3.249431
 C         0.240724        -1.924101         2.801780
 C        -0.884978        -0.970334         2.431852
 C        -0.998207        -0.141052         1.156666
 C         0.470922         0.379326         0.952768
 C         0.844258         1.023649        -0.296497
 O         1.198591        -0.335650        -0.095113
 C         1.203602         0.384481         2.321738
 H         0.496748        -0.588598         5.100136
 H         0.955729        -2.401346         2.132311
 H        -0.072916        -2.588623         3.593154
 H        -1.752892        -1.045975         3.122771
 H        -1.240723        -0.531238         0.182161
 H        -1.629911         0.730769         1.349385
 H        -0.041711         1.078495        -1.021059
 H         1.537486         1.881296        -0.270088
 H         2.057184        -0.164602         2.306838
 H         1.463184         1.397942         2.628563
