19
Iteration:   356charge 0 multiplicity 1
 O         0.199604        -0.060241         4.642332
 C         0.279577        -0.353993         3.290796
 C         0.171212        -1.867520         2.870115
 C        -0.926522        -0.775944         2.552886
 C        -0.955329        -0.375655         1.124266
 C         0.473755         0.264941         0.841374
 C         0.917602         1.058939        -0.261145
 O         1.239254        -0.296589        -0.255687
 C         1.098892         0.479109         2.218358
 H         0.784582        -0.643106         5.118901
 H         0.764333        -2.186608         2.076154
 H         0.029543        -2.485897         3.752494
 H        -1.915725        -0.771060         3.095145
 H        -0.984172        -1.278851         0.464091
 H        -1.788389         0.348006         0.950605
 H         0.142215         1.331759        -1.181768
 H         1.757392         1.741071        -0.136927
 H         2.160790         0.430833         2.289495
 H         0.820183         1.491082         2.466342
