19
Iteration:  3885charge 0 multiplicity 1
 O         0.209729         0.072538         4.588770
 C         0.366281        -0.430280         3.184388
 C         0.274538        -1.897615         3.011151
 C        -0.907301        -0.901028         2.566580
 C        -0.959255        -0.497320         1.125181
 C         0.417097         0.196030         0.848928
 C         0.672873         1.151199        -0.214856
 O         1.323112        -0.086347        -0.290200
 C         1.077975         0.396342         2.204621
 H         0.810159        -0.289519         5.292970
 H         0.893315        -2.277806         2.259031
 H         0.015544        -2.590001         3.739716
 H        -1.907310        -1.021023         3.062080
 H        -0.808479        -1.405635         0.564020
 H        -1.748842         0.178704         0.790895
 H        -0.095157         1.495854        -0.968345
 H         1.389179         1.968215        -0.067559
 H         2.057517        -0.018848         2.048775
 H         1.066905         1.408324         2.506369
