19
Iteration:  4792
 O         0.264753        -0.067601         4.565334
 C         0.399736        -0.336067         3.196429
 C         0.636943        -1.784922         2.758720
 C        -0.817943        -1.075319         2.483714
 C        -1.037379        -0.442822         1.059308
 C         0.352806         0.308769         0.957255
 C         0.618843         0.924192        -0.295705
 O         1.309859        -0.271024         0.061891
 C         0.801851         0.822547         2.266620
 H         0.625869        -0.927734         4.866586
 H         1.186411        -2.027624         1.829486
 H         0.778841        -2.513704         3.513274
 H        -1.795660        -1.322122         2.927875
 H        -1.282669        -0.977551         0.028682
 H        -1.885481         0.257725         1.254256
 H        -0.126674         0.743772        -1.043161
 H         1.215722         1.866881        -0.544253
 H         1.844081         1.041979         2.088931
 H         0.298637         1.707458         2.660103
