19
Iteration:  1915charge 0 multiplicity 1
 O         0.312266        -0.136173         4.655988
 C         0.311571        -0.388119         3.306501
 C         0.157540        -1.840735         2.785256
 C        -0.978493        -0.793295         2.506187
 C        -0.931031        -0.274722         0.995552
 C         0.473563         0.313609         0.879979
 C         0.761263         1.030538        -0.357532
 O         1.325541        -0.345922        -0.053831
 C         1.033064         0.566903         2.301719
 H         0.891925        -0.750554         5.088670
 H         0.755163        -2.233193         1.931005
 H        -0.190496        -2.675833         3.394149
 H        -1.971146        -0.931581         2.904999
 H        -0.974782        -1.112887         0.274028
 H        -1.643019         0.631011         1.036595
 H         0.171433         0.970330        -1.206631
 H         1.588800         1.733337        -0.254522
 H         2.058851         0.509766         2.410492
 H         0.687082         1.629022         2.504327
