19
Iteration:    85charge 0 multiplicity 1
 O         0.274026         0.032698         4.500579
 C         0.364437        -0.510137         3.174667
 C         0.167065        -1.901441         2.688056
 C        -0.882941        -0.903038         2.443317
 C        -0.968037        -0.116137         1.157590
 C         0.442665         0.366619         0.946916
 C         0.811262         0.959620        -0.363096
 O         1.251010        -0.424145         0.149778
 C         1.082588         0.576159         2.278828
 H         0.687750        -0.619611         5.124132
 H         0.725154        -2.267439         1.865085
 H        -0.162607        -2.652058         3.380722
 H        -1.802772        -1.048633         2.960488
 H        -1.333253        -0.773603         0.275206
 H        -1.725146         0.744039         1.292513
 H         0.125959         0.845074        -1.283978
 H         1.561507         1.759182        -0.362588
 H         2.148910         0.590989         2.351957
 H         0.679543         1.451039         2.803419
