19
Iteration:  4237charge 0 multiplicity 1
 O         0.285634         0.141249         4.532352
 C         0.346479        -0.371305         3.182612
 C         0.388757        -1.882644         2.968248
 C        -0.815953        -1.081663         2.463462
 C        -0.971895        -0.556389         1.073941
 C         0.394828         0.203487         0.939860
 C         0.691586         1.264112        -0.190769
 O         1.181443        -0.190927        -0.186688
 C         1.133219         0.440931         2.232720
 H        -0.555475        -0.025128         4.998621
 H         0.985813        -2.324513         2.155759
 H         0.009610        -2.630920         3.774145
 H        -1.819983        -1.172697         2.901457
 H        -1.344887        -1.246580         0.269833
 H        -1.698245         0.231870         1.335285
 H        -0.121972         1.421310        -0.942144
 H         1.391950         2.036376        -0.007106
 H         2.212954         0.137268         2.212081
 H         0.978088         1.600168         2.448817
