19
Iteration:  4048charge 0 multiplicity 1
 O         0.221340        -0.168217         4.556020
 C         0.312627        -0.343810         3.193176
 C         0.485541        -1.801393         2.625999
 C        -0.851153        -0.989082         2.480339
 C        -1.002921        -0.265650         1.271796
 C         0.367211         0.321377         0.909130
 C         0.747804         0.912692        -0.380919
 O         1.311462        -0.394034         0.115940
 C         0.877745         0.792001         2.207273
 H         1.115471        -0.291029         4.944262
 H         0.945469        -1.950666         1.743346
 H         0.581847        -2.553468         3.400278
 H        -1.757312        -1.207415         3.104324
 H        -1.310398        -0.916333         0.362458
 H        -1.706477         0.535967         1.628619
 H        -0.047787         0.847633        -1.103164
 H         1.447165         1.768632        -0.447389
 H         2.000049         0.797300         2.112880
 H         0.469243         1.868677         2.550594
