19
Iteration:   164
 O         0.180166        -0.039610         4.501152
 C         0.350876        -0.467535         3.221423
 C         0.171243        -1.882148         2.736666
 C        -0.910174        -0.907992         2.518633
 C        -0.975973        -0.171477         1.197442
 C         0.409865         0.360303         0.933524
 C         0.961330         0.968547        -0.338765
 O         1.187157        -0.404361        -0.088069
 C         1.083724         0.576215         2.332913
 H         1.088540         0.142518         4.845060
 H         0.965689        -2.219507         2.046493
 H         0.015921        -2.484611         3.668776
 H        -1.859477        -1.015761         3.117190
 H        -1.247720        -0.970862         0.401116
 H        -1.716539         0.646818         1.292960
 H         0.398566         1.185129        -1.277324
 H         1.863546         1.581499        -0.306266
 H         2.150477         0.438220         2.320479
 H         0.869450         1.508415         2.781225
