19
Iteration:   626
 O         0.264110         0.016089         4.599123
 C         0.316254        -0.459308         3.261754
 C         0.123649        -1.957275         2.860595
 C        -0.927761        -0.863755         2.549014
 C        -0.984977        -0.224767         1.117028
 C         0.466542         0.351197         0.906900
 C         0.825577         1.047141        -0.247841
 O         1.340227        -0.315555        -0.255233
 C         1.153456         0.405224         2.264373
 H        -0.672211         0.134661         4.883383
 H         0.824183        -2.383113         2.134865
 H        -0.067865        -2.595478         3.707072
 H        -1.890608        -0.879301         3.080321
 H        -1.411619        -0.771776         0.289364
 H        -1.544881         0.676263         1.196671
 H        -0.041572         1.325810        -0.863708
 H         1.640116         1.666810        -0.450722
 H         2.196905         0.043385         2.159359
 H         1.141701         1.415412         2.540810
