19
Iteration:  3123charge 0 multiplicity 1
 O         0.335265         0.087812         4.498108
 C         0.318502        -0.475130         3.185170
 C         0.057679        -1.978055         2.972098
 C        -0.901584        -0.918363         2.519155
 C        -0.943076        -0.386147         1.090539
 C         0.403216         0.300768         0.872399
 C         0.722983         1.171205        -0.230487
 O         1.359908        -0.188383        -0.097699
 C         1.166045         0.388144         2.207425
 H        -0.117466        -0.551813         5.048432
 H         0.408379        -2.557648         2.053786
 H        -0.121719        -2.498203         3.917593
 H        -1.771421        -0.546642         2.995938
 H        -1.186013        -1.259403         0.398721
 H        -1.763269         0.324949         0.930134
 H         0.210031         1.420567        -1.143078
 H         1.454419         1.956914         0.030256
 H         2.208969         0.052784         2.147382
 H         1.185560         1.470006         2.539390
