19
Iteration:  3047
 O         0.215868        -0.025346         4.559236
 C         0.305903        -0.372433         3.185628
 C         0.266812        -1.793487         2.775598
 C        -0.864154        -0.873090         2.511978
 C        -1.000093        -0.282104         1.103570
 C         0.437647         0.279569         0.926342
 C         0.881870         1.095007        -0.222636
 O         1.176859        -0.394563        -0.118004
 C         1.127658         0.473060         2.292040
 H        -0.071456        -0.911968         4.913342
 H         0.922296        -2.047935         1.884845
 H         0.320970        -2.528618         3.626952
 H        -1.807739        -0.972062         3.104890
 H        -1.254752        -0.900655         0.137094
 H        -1.817497         0.549144         1.033016
 H         0.162294         1.057236        -0.989108
 H         1.682854         1.834651        -0.078682
 H         2.175815         0.188150         2.502670
 H         1.040844         1.558927         2.657213
