19
Iteration:  2186
 O         0.202701        -0.163273         4.511093
 C         0.323835        -0.370223         3.150305
 C         0.393803        -1.847691         2.588960
 C        -0.914981        -0.939578         2.500792
 C        -1.058119        -0.129782         1.221335
 C         0.366948         0.366906         0.962456
 C         1.084612         0.839395        -0.322232
 O         1.093928        -0.462290         0.064707
 C         1.000663         0.730995         2.331495
 H         1.012227         0.088311         4.961154
 H         0.841903        -1.936150         1.595096
 H         0.404565        -2.720580         3.287946
 H        -1.830847        -1.152036         3.073118
 H        -1.590578        -0.557232         0.380315
 H        -1.771059         0.661962         1.358691
 H         0.492958         1.251125        -1.184687
 H         2.054363         1.501134        -0.072381
 H         2.095231         0.852169         2.274416
 H         0.680298         1.630914         2.643739
