19
Iteration:  2729charge 0 multiplicity 1
 O         0.226723         0.276541         4.534141
 C         0.262783        -0.497053         3.289018
 C         0.089875        -1.995056         2.993802
 C        -0.923632        -0.970086         2.491136
 C        -0.871680        -0.438314         1.102004
 C         0.545023         0.271501         0.892009
 C         0.818604         1.246296        -0.166143
 O         1.140147        -0.123298        -0.419634
 C         1.312278         0.159729         2.329316
 H        -0.667825         0.021776         4.901941
 H         0.679086        -2.374048         2.196058
 H        -0.168741        -2.595780         3.886386
 H        -1.975076        -0.970567         2.962043
 H        -0.895094        -1.239079         0.325916
 H        -1.660161         0.296722         0.878005
 H         0.001025         1.687651        -0.779227
 H         1.662652         2.015072         0.157989
 H         2.295486        -0.333565         2.393260
 H         1.567902         1.151995         2.782709
