19
Iteration:  1636charge 0 multiplicity 1
 O         0.278978        -0.031549         4.541469
 C         0.326766        -0.459469         3.188309
 C        -0.040502        -1.921730         2.976385
 C        -0.976805        -0.893108         2.510021
 C        -0.940139        -0.382444         1.097201
 C         0.440750         0.336669         0.866822
 C         0.823987         1.170028        -0.346982
 O         1.348973        -0.153640        -0.109391
 C         1.129773         0.358417         2.260169
 H         1.203885        -0.088210         4.890644
 H         0.612256        -2.469249         2.355023
 H        -0.221747        -2.412397         3.964047
 H        -1.785842        -0.663528         3.106842
 H        -0.940852        -1.217273         0.386569
 H        -1.725042         0.362329         0.952387
 H         0.139081         1.199060        -1.172442
 H         1.542191         1.972364        -0.078522
 H         2.215563        -0.101309         2.050249
 H         1.249193         1.310503         2.728127
