19
Iteration:  4755charge 0 multiplicity 1
 O         0.263192        -0.137773         4.626835
 C         0.301800        -0.350063         3.220455
 C         0.618620        -1.785065         2.689343
 C        -0.796000        -1.160142         2.538452
 C        -1.067396        -0.441509         1.188415
 C         0.319196         0.414269         0.917348
 C         0.781922         0.996782        -0.396683
 O         1.248863        -0.302849        -0.031642
 C         0.850116         0.775687         2.297412
 H         0.216090         0.809296         4.908144
 H         1.194991        -1.886470         1.771169
 H         0.777453        -2.589059         3.489596
 H        -1.560201        -1.692459         3.100536
 H        -1.121456        -1.025741         0.338059
 H        -2.008446         0.191712         1.238608
 H        -0.067049         0.920825        -1.134664
 H         1.529279         1.652873        -0.677529
 H         1.929946         1.018162         2.192576
 H         0.325124         1.668834         2.525324
