19
Iteration:   229
 O         0.371303        -0.183458         4.703516
 C         0.254707        -0.328819         3.213651
 C         0.051826        -1.792133         2.878367
 C        -1.005062        -0.828146         2.533913
 C        -0.937695        -0.330556         1.115061
 C         0.495265         0.386540         0.827385
 C         0.875486         1.084934        -0.400690
 O         1.319951        -0.426700        -0.121224
 C         0.985936         0.615279         2.265588
 H         0.696786        -1.036032         5.063878
 H         0.723605        -2.259259         2.158646
 H         0.041572        -2.498417         3.777789
 H        -1.977807        -0.844854         3.064650
 H        -0.722235        -1.285665         0.433368
 H        -1.818190         0.278698         0.715148
 H         0.256846         1.119640        -1.285394
 H         1.800428         1.756828        -0.416218
 H         2.072316         0.584347         2.186791
 H         0.727313         1.688087         2.513728
