19
Iteration:   810
 O         0.203742         0.023655         4.544983
 C         0.234757        -0.395359         3.178273
 C         0.394244        -1.881129         2.663751
 C        -0.842137        -0.987410         2.365913
 C        -0.988150        -0.004646         1.244854
 C         0.394806         0.393220         0.965357
 C         0.935321         0.890713        -0.334607
 O         1.160037        -0.495965        -0.003795
 C         0.988509         0.572464         2.419356
 H         0.853191        -0.624740         4.960850
 H         1.008158        -2.085178         1.780481
 H         0.200786        -2.818067         3.207026
 H        -1.725559        -1.542658         2.857235
 H        -1.450598        -0.484993         0.420863
 H        -1.612303         0.948266         1.538389
 H         0.230545         1.044015        -1.179305
 H         1.838572         1.391314        -0.489878
 H         2.124110         0.422652         2.246200
 H         0.802521         1.677183         2.693365
