19
Iteration:  4826
 O         0.443001        -0.026328         4.648756
 C         0.335654        -0.407790         3.211039
 C         0.567419        -1.843600         2.758252
 C        -0.849597        -1.130777         2.505082
 C        -0.961752        -0.525916         1.065981
 C         0.273462         0.356052         0.943220
 C         0.721119         1.015036        -0.426432
 O         1.276858        -0.194824         0.008206
 C         0.728457         0.770379         2.298014
 H        -0.404859         0.326315         5.026511
 H         1.013908        -1.923798         1.786189
 H         0.797807        -2.654975         3.426684
 H        -1.797644        -1.535553         2.922091
 H        -1.074060        -1.456283         0.333226
 H        -1.883030         0.079651         1.123866
 H         0.000491         0.929417        -1.243132
 H         1.419564         1.933279        -0.414948
 H         1.786436         0.680395         2.418454
 H         0.364266         1.786521         2.579069
