19
Iteration:  1767
 O         0.388808        -0.084157         4.494544
 C         0.235181        -0.452207         3.187880
 C         0.025583        -1.913852         2.798247
 C        -1.056114        -0.815705         2.572966
 C        -0.922913        -0.318254         1.128752
 C         0.547810         0.234019         0.934397
 C         0.769260         1.051533        -0.341286
 O         1.422803        -0.248335        -0.037637
 C         1.017156         0.627719         2.301087
 H         0.642762        -0.841562         5.064235
 H         0.709457        -2.409731         2.053036
 H         0.032459        -2.596749         3.688339
 H        -2.057518        -0.917940         2.997829
 H        -1.180798        -0.989538         0.291989
 H        -1.604660         0.683918         0.889755
 H         0.067046         0.873223        -1.196029
 H         1.572432         1.873117        -0.366824
 H         2.167912         0.477809         2.497952
 H         0.786295         1.636433         2.509642
