19
Iteration:  1278
 O         0.227685        -0.082244         4.639034
 C         0.331212        -0.369990         3.213130
 C         0.099558        -1.859167         2.848195
 C        -0.993868        -0.727976         2.581048
 C        -0.866274        -0.401216         1.089020
 C         0.460377         0.217528         0.873243
 C         0.834425         1.090644        -0.230284
 O         1.259525        -0.279942        -0.257629
 C         1.157133         0.497188         2.261424
 H         0.636126        -0.836745         5.155773
 H         0.353637        -2.281667         1.795192
 H        -0.136522        -2.633161         3.607072
 H        -1.922194        -0.551602         3.212970
 H        -0.852280        -1.416343         0.558718
 H        -1.624738         0.214904         0.558938
 H         0.121499         1.371425        -0.929393
 H         1.574438         1.910657         0.054482
 H         2.261313         0.394070         2.426863
 H         1.028353         1.686513         2.547489
