19
Iteration:  3535charge 0 multiplicity 1
 O         0.230499         0.063390         4.544999
 C         0.337967        -0.513301         3.268403
 C         0.027012        -1.942269         3.040255
 C        -0.947436        -0.806359         2.613557
 C        -0.924629        -0.417167         1.058334
 C         0.489266         0.154492         0.843946
 C         0.679907         1.178016        -0.239840
 O         1.456012        -0.097262        -0.269133
 C         1.150984         0.292670         2.229671
 H         0.981535         0.679733         4.576861
 H         0.530937        -2.520416         2.207420
 H        -0.038940        -2.546559         3.901019
 H        -2.022206        -0.909638         2.964897
 H        -1.087392        -1.229407         0.383413
 H        -1.730597         0.363543         0.797273
 H        -0.237653         1.247660        -0.847917
 H         1.226499         2.100503        -0.145686
 H         2.243736         0.085885         2.063661
 H         0.906465         1.344398         2.634840
