19
Iteration:  2424
 O         0.230044        -0.083795         4.597145
 C         0.277910        -0.321932         3.203391
 C         0.162785        -1.850049         2.805862
 C        -1.017451        -0.832883         2.574681
 C        -0.891803        -0.371107         1.080569
 C         0.506583         0.227026         0.893583
 C         0.926351         1.129158        -0.227681
 O         1.202555        -0.325477        -0.221922
 C         1.110260         0.497086         2.306420
 H         1.009208        -0.412831         5.082815
 H         0.546560        -2.126044         1.907319
 H         0.005163        -2.539000         3.604595
 H        -1.899602        -0.965230         3.126464
 H        -1.267851        -1.164522         0.362600
 H        -1.657140         0.531407         0.975976
 H         0.143875         1.342981        -0.961077
 H         1.756477         1.770679         0.022085
 H         2.172071         0.210738         2.389766
 H         0.877224         1.596387         2.563208
