19
Iteration:  2849charge 0 multiplicity 1
 O         0.216157        -0.033387         4.591126
 C         0.326087        -0.414776         3.178602
 C         0.128079        -1.928124         2.953766
 C        -0.962916        -0.847815         2.581294
 C        -0.861947        -0.402839         1.064791
 C         0.503156         0.207996         0.859202
 C         0.829825         1.106687        -0.272898
 O         1.247240        -0.195706        -0.219949
 C         1.071071         0.506114         2.257720
 H         1.091087        -0.139239         4.963370
 H         0.641844        -2.357889         2.072085
 H        -0.105563        -2.544724         3.794343
 H        -1.839889        -0.900755         3.138585
 H        -0.976975        -1.302271         0.357799
 H        -1.665317         0.393336         0.910836
 H         0.090719         1.454512        -0.916023
 H         1.491481         1.934284        -0.033574
 H         2.165426         0.268033         2.337863
 H         0.796219         1.558922         2.683686
