19
Iteration:  1578
 O         0.285493        -0.112296         4.666152
 C         0.224226        -0.396734         3.197185
 C         0.197324        -1.808328         2.814545
 C        -0.997932        -0.889850         2.505522
 C        -0.950186        -0.243168         1.111571
 C         0.501652         0.329372         0.880102
 C         0.899809         1.065825        -0.331139
 O         1.258758        -0.352180        -0.103477
 C         1.024998         0.498586         2.273904
 H         1.177634        -0.464379         4.876090
 H         0.700715        -2.323098         1.990518
 H        -0.104523        -2.480157         3.555274
 H        -1.902370        -1.080267         3.171699
 H        -1.031648        -0.939578         0.284202
 H        -1.775560         0.555104         0.804586
 H         0.238018         1.337171        -1.116587
 H         1.616805         1.834244        -0.203918
 H         2.101251         0.206357         2.237809
 H         0.975654         1.541168         2.704683
