19
Iteration:  1043
 O         0.260051        -0.169028         4.565333
 C         0.293864        -0.335573         3.196007
 C         0.136595        -1.833038         2.749407
 C        -0.955642        -0.869194         2.575213
 C        -0.958307        -0.199741         1.106117
 C         0.469276         0.273023         0.928542
 C         0.929136         1.031397        -0.341354
 O         1.259628        -0.411821        -0.093949
 C         1.031422         0.583815         2.339860
 H         1.090463        -0.125477         5.002568
 H         0.567568        -2.259079         1.817442
 H        -0.012278        -2.565174         3.560642
 H        -1.863636        -0.863272         3.202349
 H        -1.346261        -1.017888         0.474869
 H        -1.620330         0.684399         0.951191
 H         0.216031         1.164863        -1.123505
 H         1.791123         1.710033        -0.222415
 H         2.189461         0.563640         2.166563
 H         0.820335         1.609882         2.707088
