19
Iteration:  4941
 O         0.183420        -0.078301         4.529552
 C         0.312385        -0.343072         3.161523
 C         0.587174        -1.822258         2.881833
 C        -0.708396        -1.159156         2.518008
 C        -0.900304        -0.651266         1.140926
 C         0.349834         0.285489         0.944876
 C         0.528057         1.121665        -0.259897
 O         1.247975        -0.137504        -0.162380
 C         0.926470         0.710205         2.260139
 H         0.152624         0.916296         4.578995
 H         1.335060        -2.246058         2.169595
 H         0.561237        -2.385115         3.848709
 H        -1.533237        -1.335126         3.265565
 H        -1.066842        -1.261902         0.315666
 H        -1.721038         0.094391         1.254270
 H        -0.163998         1.012446        -1.030327
 H         1.158649         2.022029        -0.220411
 H         2.052478         0.561235         2.434285
 H         0.684904         1.795511         2.459089
