19
Iteration:  2526
 O         0.102573        -0.340616         4.665369
 C         0.334448        -0.342745         3.189802
 C         0.353188        -1.688727         2.629197
 C        -0.846242        -0.788673         2.534319
 C        -0.992910        -0.160875         1.166695
 C         0.371298         0.454204         0.844584
 C         0.974695         0.853876        -0.398492
 O         1.187592        -0.493359         0.087739
 C         1.029975         0.715985         2.282313
 H         0.982571        -0.427518         5.132353
 H         0.966985        -1.881118         1.705101
 H         0.332505        -2.703812         3.160202
 H        -1.684041        -1.253695         3.126529
 H        -1.488831        -0.936012         0.516803
 H        -1.763102         0.744475         1.380183
 H         0.271329         0.886810        -1.189766
 H         1.806948         1.504280        -0.493369
 H         2.133711         0.520642         2.074673
 H         0.603606         1.790501         2.291045
