19
Iteration:   349
 O         0.130687        -0.053207         4.622814
 C         0.381214        -0.436014         3.279064
 C         0.179119        -1.817454         2.929839
 C        -0.982497        -0.837281         2.585067
 C        -0.967745        -0.345470         1.059300
 C         0.498994         0.255861         0.851167
 C         0.912359         1.078434        -0.259239
 O         1.177015        -0.316580        -0.260474
 C         1.160902         0.537051         2.242862
 H         0.911152        -0.418432         5.097367
 H         0.675570        -2.257744         2.032451
 H        -0.000888        -2.572192         3.715553
 H        -1.847339        -1.033546         3.166554
 H        -0.885571        -1.170116         0.395110
 H        -1.731779         0.392188         0.838984
 H         0.253685         1.470954        -0.998658
 H         1.867172         1.656216        -0.316398
 H         2.276851         0.429521         2.200263
 H         0.866206         1.623475         2.536497
