19
Iteration:   953charge 0 multiplicity 1
 O         0.163076         0.015367         4.623418
 C         0.327661        -0.438052         3.318082
 C         0.133582        -1.870182         2.912929
 C        -0.917786        -0.836864         2.554217
 C        -0.999325        -0.365852         1.104791
 C         0.420184         0.277624         0.847653
 C         0.955750         1.142222        -0.262853
 O         1.236120        -0.283308        -0.312507
 C         1.158495         0.400928         2.253363
 H         0.804574        -0.603555         5.022625
 H         0.738962        -2.358936         2.084238
 H        -0.038204        -2.649334         3.723707
 H        -1.834252        -0.813176         3.098752
 H        -1.245674        -1.103336         0.406718
 H        -1.621512         0.547444         0.881340
 H         0.257566         1.504107        -0.973833
 H         1.818617         1.668733         0.042667
 H         2.301495         0.339035         2.130576
 H         0.987873         1.465830         2.589191
