19
Iteration:  4490charge 0 multiplicity 1
 O         0.537444        -0.023638         4.580628
 C         0.349849        -0.445520         3.255576
 C         0.344964        -1.773940         2.702446
 C        -0.933438        -1.009611         2.481715
 C        -1.038429        -0.416727         1.085288
 C         0.327202         0.323947         0.885762
 C         0.791094         0.987648        -0.333855
 O         1.316972        -0.283022         0.033467
 C         0.829271         0.700826         2.334438
 H        -0.159573        -0.294282         5.181282
 H         1.011233        -2.077896         1.918766
 H         0.176827        -2.644873         3.376348
 H        -1.877285        -1.360191         2.854353
 H        -1.361217        -1.222262         0.418939
 H        -1.888429         0.355393         0.952054
 H         0.165414         0.827952        -1.143925
 H         1.493522         1.844299        -0.371064
 H         1.896835         0.892755         2.145177
 H         0.348579         1.613678         2.636657
