19
Iteration:  1409
 O         0.409408        -0.131865         4.601352
 C         0.206850        -0.366472         3.265517
 C         0.093405        -1.761913         2.886996
 C        -1.063427        -0.887654         2.469945
 C        -0.914524        -0.277677         1.098301
 C         0.466456         0.322672         0.923069
 C         0.850243         0.998672        -0.347817
 O         1.392031        -0.284159        -0.129532
 C         0.997884         0.538717         2.275002
 H         0.543405        -1.002328         5.074591
 H         0.651945        -2.308357         2.075391
 H        -0.228203        -2.520335         3.599732
 H        -1.950326        -0.955290         3.044721
 H        -1.196521        -0.852062         0.127059
 H        -1.728601         0.504571         1.068030
 H         0.194410         0.975219        -1.187676
 H         1.674163         1.788544        -0.356201
 H         1.999355         0.085667         2.184086
 H         1.087896         1.575037         2.694937
