19
Iteration:  1468charge 0 multiplicity 1
 O         0.414025        -0.167305         4.495956
 C         0.300009        -0.365048         3.113277
 C         0.161972        -1.847624         2.685328
 C        -0.972462        -0.866045         2.495548
 C        -1.093426        -0.241239         1.138047
 C         0.446275         0.366251         0.943663
 C         0.990612         0.977930        -0.286414
 O         1.237392        -0.444656         0.097793
 C         0.985157         0.731935         2.296305
 H         0.011511        -0.868618         5.025509
 H         0.648101        -2.252933         1.820644
 H         0.228320        -2.427322         3.632877
 H        -1.875629        -0.782804         3.173521
 H        -0.999950        -0.993493         0.434012
 H        -1.983213         0.425880         1.096288
 H         0.596483         1.024636        -1.290418
 H         1.807936         1.584050        -0.177862
 H         2.064982         0.590036         2.254979
 H         0.770553         1.839547         2.627228
