19
Iteration:  3334charge 0 multiplicity 1
 O         0.511919        -0.088193         4.556327
 C         0.228864        -0.439193         3.213967
 C         0.172376        -1.803717         2.599286
 C        -1.092447        -0.886193         2.443785
 C        -1.092741        -0.077122         1.165321
 C         0.351605         0.479541         0.956355
 C         0.959071         0.777033        -0.303339
 O         1.447518        -0.431536         0.076709
 C         0.892515         0.607938         2.323475
 H         1.030688        -0.785487         4.940944
 H         0.825173        -1.885642         1.729803
 H         0.114179        -2.618550         3.234741
 H        -2.004087        -1.231701         3.052257
 H        -1.248935        -0.671855         0.183858
 H        -1.965715         0.555741         1.339749
 H         0.213366         0.667422        -1.177190
 H         1.662747         1.504271        -0.660712
 H         1.994420         0.657443         2.489068
 H         0.511181         1.649572         2.684620
