19
Iteration:   724
 O         0.487282        -0.058099         4.566326
 C         0.217389        -0.407163         3.169112
 C         0.034459        -1.835804         2.786158
 C        -1.024578        -0.838243         2.481620
 C        -0.975603        -0.235453         1.056927
 C         0.384259         0.307785         0.915997
 C         0.885462         0.979547        -0.258590
 O         1.408970        -0.367869        -0.023612
 C         0.979677         0.560982         2.307021
 H         1.079143        -0.764271         4.812622
 H         0.759140        -2.275024         2.139700
 H        -0.196442        -2.540493         3.644671
 H        -2.025579        -1.146363         2.915469
 H        -1.314280        -0.893013         0.283636
 H        -1.574672         0.715089         1.036218
 H         0.201100         0.889406        -1.119330
 H         1.536723         1.760063        -0.046856
 H         2.072550         0.685234         2.087336
 H         0.623314         1.431295         2.789600
