19
Iteration:    25
 O         0.391508        -0.234498         4.671053
 C         0.315287        -0.318497         3.226753
 C         0.115009        -1.727814         2.663854
 C        -0.998016        -0.717726         2.546420
 C        -0.983905        -0.352855         1.048743
 C         0.427279         0.217573         0.886397
 C         0.913808         0.936220        -0.233212
 O         1.338159        -0.414855        -0.094912
 C         0.890857         0.711803         2.286670
 H         1.331628        -0.539345         4.895414
 H         0.671709        -1.994492         1.693264
 H         0.058904        -2.483293         3.442048
 H        -1.874765        -0.849564         3.220068
 H        -1.206925        -1.269768         0.548625
 H        -1.878363         0.414998         0.687300
 H         0.266384         1.365575        -0.994872
 H         1.914020         1.603771         0.010254
 H         2.037199         0.868685         2.319656
 H         0.349430         1.704799         2.579405
