19
Iteration:  2391charge 0 multiplicity 1
 O         0.099112         0.021802         4.592458
 C         0.317510        -0.496023         3.242063
 C         0.181044        -1.971624         2.964075
 C        -0.915714        -0.855447         2.490517
 C        -0.832575        -0.170941         1.070105
 C         0.507938         0.377961         0.915166
 C         0.716157         1.090148        -0.313168
 O         1.272309        -0.259453        -0.192272
 C         1.194440         0.293393         2.268409
 H         0.871813        -0.043144         5.133878
 H         0.691531        -2.508194         2.254261
 H        -0.306061        -2.679562         3.616841
 H        -1.776923        -1.113475         2.982223
 H        -1.317474        -0.852236         0.334376
 H        -1.510859         0.805717         1.092506
 H        -0.072592         1.165515        -1.051184
 H         1.314039         1.941598        -0.491734
 H         2.223660        -0.070864         2.250973
 H         1.417902         1.375377         2.551313
