19
Iteration:   728charge 0 multiplicity 1
 O         0.491754        -0.080396         4.594175
 C         0.222184        -0.399126         3.159902
 C         0.038831        -1.832305         2.776409
 C        -1.026163        -0.791428         2.448803
 C        -0.982611        -0.260797         1.057661
 C         0.417660         0.306908         0.917379
 C         0.874388         0.976025        -0.276543
 O         1.392165        -0.381909         0.000474
 C         0.942220         0.589626         2.318087
 H         1.205328        -0.752386         4.756273
 H         0.832961        -2.235619         2.040202
 H        -0.229250        -2.601375         3.518703
 H        -1.926770        -1.091087         2.977722
 H        -1.294284        -0.996654         0.225881
 H        -1.579371         0.608346         1.009374
 H         0.099773         0.846025        -1.061672
 H         1.611292         1.811280        -0.024924
 H         2.034676         0.522990         2.258209
 H         0.775855         1.644964         2.692749
