19
Iteration:  3069
 O         0.236104         0.135950         4.633854
 C         0.292321        -0.492543         3.328532
 C         0.240099        -1.862488         2.746150
 C        -0.937482        -0.937597         2.499208
 C        -0.888249        -0.318892         1.101475
 C         0.485255         0.306542         0.935917
 C         0.875596         1.099504        -0.246458
 O         1.143948        -0.327831        -0.274721
 C         1.107092         0.458115         2.322264
 H        -0.102177        -0.540527         5.208694
 H         1.138601        -2.038257         2.048421
 H        -0.094956        -2.825158         3.190875
 H        -1.912424        -1.269940         2.908136
 H        -1.292552        -1.135355         0.332851
 H        -1.556564         0.609270         0.848600
 H         0.020350         1.388060        -0.809357
 H         1.810380         1.627478        -0.050782
 H         2.161949         0.099422         2.362895
 H         1.155940         1.555886         2.689887
