19
Iteration:    43
 O         0.485417        -0.248311         4.594283
 C         0.226851        -0.299914         3.208818
 C         0.089084        -1.775954         2.769272
 C        -1.085963        -0.800489         2.568757
 C        -1.002891        -0.343659         1.116051
 C         0.416203         0.286729         0.873808
 C         1.017043         1.031815        -0.372964
 O         1.353759        -0.370262         0.005556
 C         0.872893         0.688923         2.280179
 H         1.361337        -0.697529         4.763337
 H         0.539413        -2.212989         1.903216
 H         0.025586        -2.535508         3.514042
 H        -2.043044        -0.942454         3.050051
 H        -1.124749        -1.206337         0.423959
 H        -1.674427         0.387624         0.970268
 H         0.471634         0.868528        -1.290413
 H         1.674323         1.776827        -0.291492
 H         1.913862         0.766217         2.387034
 H         0.539868         1.666697         2.377025
