19
Iteration:  4754charge 0 multiplicity 1
 O         0.270264        -0.136281         4.626503
 C         0.298638        -0.349899         3.216722
 C         0.615771        -1.788495         2.693280
 C        -0.792670        -1.162464         2.540458
 C        -1.064164        -0.439637         1.172010
 C         0.309587         0.409364         0.921583
 C         0.779634         0.992622        -0.391308
 O         1.245411        -0.303310        -0.032018
 C         0.853502         0.777109         2.302777
 H         0.165897         0.819935         4.878449
 H         1.200408        -1.873329         1.786564
 H         0.795086        -2.584355         3.479544
 H        -1.538559        -1.693890         3.126999
 H        -1.151612        -1.048488         0.340384
 H        -1.962697         0.230636         1.214576
 H        -0.059254         0.966511        -1.148308
 H         1.541643         1.669225        -0.684118
 H         1.952499         1.002428         2.226970
 H         0.309704         1.698279         2.532701
