19
Iteration:  3303
 O         0.421488        -0.170723         4.521336
 C         0.340536        -0.410220         3.130161
 C         0.187171        -1.852094         2.684023
 C        -0.933821        -0.802592         2.482101
 C        -0.991951        -0.152133         1.113930
 C         0.353962         0.319177         0.961516
 C         0.902449         0.947628        -0.330438
 O         1.223780        -0.430656         0.172483
 C         1.037716         0.690891         2.259627
 H        -0.303769        -0.748521         4.909309
 H         0.812943        -2.133476         1.808095
 H         0.151807        -2.572415         3.457411
 H        -1.867932        -0.883959         3.077193
 H        -1.195301        -0.839566         0.238396
 H        -1.922794         0.517885         1.095882
 H         0.334394         0.785522        -1.191160
 H         1.794468         1.573227        -0.351373
 H         2.114944         0.769169         2.534114
 H         0.519368         1.687889         2.441365
