19
Iteration:  3452charge 0 multiplicity 1
 O         0.227911         0.076852         4.531393
 C         0.319198        -0.444440         3.222572
 C         0.186680        -1.924759         2.906712
 C        -0.946994        -0.964738         2.557969
 C        -0.942151        -0.256042         1.192816
 C         0.498750         0.242837         0.889974
 C         0.846393         1.110623        -0.267271
 O         1.245043        -0.307670        -0.199725
 C         1.130369         0.459713         2.190130
 H        -0.191984        -0.627615         5.102450
 H         0.866426        -2.243408         2.130576
 H        -0.093227        -2.647517         3.622633
 H        -1.849663        -0.902988         3.211561
 H        -1.196133        -0.840827         0.290229
 H        -1.617457         0.584539         1.244358
 H         0.104067         1.494615        -1.029834
 H         1.687430         1.771165        -0.146938
 H         2.195246         0.394017         2.170347
 H         0.930900         1.457882         2.501522
