19
Iteration:  1715
 O         0.241217         0.076325         4.520807
 C         0.248227        -0.418339         3.232400
 C         0.188171        -1.857686         2.933046
 C        -0.971235        -0.935181         2.522419
 C        -0.883678        -0.398552         1.139249
 C         0.444476         0.304869         0.883561
 C         0.962165         1.181332        -0.181012
 O         1.180298        -0.226309        -0.271878
 C         1.121646         0.296980         2.274264
 H         0.115234        -0.658022         5.171213
 H         0.615679        -2.307381         2.007312
 H        -0.102839        -2.490948         3.734063
 H        -1.966412        -0.835966         3.097270
 H        -1.147601        -1.055744         0.261242
 H        -1.685217         0.388010         0.951320
 H         0.426859         1.686477        -1.029225
 H         1.811773         1.800263         0.004909
 H         2.197798        -0.119149         2.266044
 H         1.177974         1.342249         2.623122
