19
Iteration:  1349charge 0 multiplicity 1
 O         0.108833         0.076720         4.556458
 C         0.224113        -0.470916         3.206105
 C         0.278380        -1.971295         2.872204
 C        -0.953464        -0.977095         2.520941
 C        -0.995363        -0.177499         1.164158
 C         0.514621         0.242355         0.928623
 C         0.909509         1.128355        -0.233006
 O         1.211600        -0.275476        -0.252001
 C         1.189694         0.345429         2.289079
 H         0.921357         0.610840         4.742698
 H         0.769061        -2.333906         1.958322
 H        -0.045380        -2.602104         3.727847
 H        -1.865342        -1.192635         3.091876
 H        -1.370903        -0.676822         0.302763
 H        -1.563423         0.727762         1.417272
 H         0.202803         1.480713        -1.116570
 H         1.761271         1.799713        -0.141103
 H         2.250971        -0.010729         2.296058
 H         1.299578         1.365673         2.591873
