19
Iteration:  1169charge 0 multiplicity 1
 O         0.146831        -0.189430         4.722736
 C         0.232118        -0.307623         3.237364
 C         0.321425        -1.760303         2.716575
 C        -0.918775        -0.919442         2.468932
 C        -1.003022        -0.054637         1.165809
 C         0.475477         0.301057         0.912074
 C         0.986792         0.911190        -0.403363
 O         1.083799        -0.440601        -0.168456
 C         1.101739         0.563707         2.358705
 H         1.068866        -0.212354         5.057464
 H         1.159833        -1.817771         1.986426
 H         0.373457        -2.603571         3.476239
 H        -1.791180        -1.337403         2.926092
 H        -1.092161        -0.688493         0.296601
 H        -1.608834         0.842275         1.169016
 H         0.473805         1.176383        -1.300019
 H         1.931756         1.505409        -0.324077
 H         2.061514         0.207639         2.428015
 H         0.871632         1.618358         2.669338
