19
Iteration:  4283
 O         0.294205         0.057485         4.589467
 C         0.372060        -0.407050         3.224850
 C         0.240522        -1.911886         2.933778
 C        -0.902059        -1.015118         2.587890
 C        -0.876951        -0.536105         1.109626
 C         0.459565         0.212542         0.897816
 C         0.582674         1.151448        -0.389276
 O         1.279876        -0.071057        -0.213798
 C         1.109791         0.518661         2.281162
 H        -0.187204        -0.590227         5.185271
 H         0.987778        -2.228395         2.139365
 H         0.100400        -2.502466         3.835519
 H        -1.856859        -1.085780         3.167326
 H        -0.974211        -1.338390         0.448114
 H        -1.686857         0.191119         0.847333
 H        -0.271372         1.189401        -1.056751
 H         1.244681         1.992084        -0.406449
 H         2.213223         0.270809         2.270141
 H         0.931560         1.604005         2.529319
