19
Iteration:  2586charge 0 multiplicity 1
 O         0.287775         0.089378         4.569570
 C         0.304931        -0.420170         3.226680
 C         0.225843        -1.960600         2.695576
 C        -0.939633        -1.003117         2.440045
 C        -1.019917        -0.166482         1.142469
 C         0.428279         0.349157         0.940314
 C         0.863472         1.013665        -0.281020
 O         1.301236        -0.366466        -0.058279
 C         1.005040         0.459811         2.319673
 H         1.077513        -0.118661         5.060203
 H         0.894370        -2.178221         1.860474
 H        -0.077365        -2.711434         3.347371
 H        -1.893133        -1.165207         3.061164
 H        -1.424498        -0.740303         0.319363
 H        -1.608950         0.680971         1.231233
 H         0.201034         0.983020        -1.188019
 H         1.677504         1.833085        -0.113790
 H         2.072803         0.523050         2.487588
 H         0.746040         1.483257         2.672523
