19
Iteration:  2270
 O         0.284349        -0.052730         4.558360
 C         0.385064        -0.439812         3.225920
 C         0.027774        -1.961127         2.754548
 C        -0.912015        -0.808628         2.508712
 C        -1.023975        -0.270216         1.064934
 C         0.424274         0.339535         0.941985
 C         0.739851         0.975108        -0.325968
 O         1.459875        -0.261474        -0.081131
 C         1.078354         0.534911         2.328930
 H         0.806255        -0.591258         5.204824
 H         0.652089        -2.520754         2.104689
 H        -0.171486        -2.493381         3.646549
 H        -1.695300        -0.631299         3.279842
 H        -1.093718        -1.048268         0.286165
 H        -1.769707         0.585549         1.161614
 H        -0.107802         0.846897        -1.023770
 H         1.225333         1.870298        -0.526955
 H         2.198460         0.338297         2.109347
 H         0.929226         1.660719         2.853856
