19
Iteration:  3637charge 0 multiplicity 1
 O         0.292141        -0.078040         4.521322
 C         0.278784        -0.436331         3.213004
 C         0.216281        -1.860402         2.860555
 C        -0.882648        -0.951425         2.487762
 C        -0.898531        -0.355647         1.117962
 C         0.408185         0.338533         0.924579
 C         0.694561         1.053506        -0.321930
 O         1.299136        -0.283778        -0.022771
 C         1.087084         0.506641         2.258036
 H         0.204919         0.896071         4.607286
 H         0.924696        -2.189926         2.096530
 H        -0.059610        -2.540827         3.666522
 H        -1.752509        -1.056180         3.084682
 H        -1.255689        -0.919029         0.212886
 H        -1.499744         0.615691         1.128011
 H         0.069757         1.222137        -1.166057
 H         1.529243         1.657676        -0.326151
 H         2.195917         0.439669         2.287438
 H         0.846953         1.539796         2.679153
