19
Iteration:   144
 O         0.100954        -0.176323         4.726987
 C         0.312198        -0.330279         3.292900
 C         0.392985        -1.837688         2.885555
 C        -0.869691        -0.854233         2.450818
 C        -1.035781        -0.135036         1.072255
 C         0.466727         0.373856         0.867896
 C         1.048415         0.958564        -0.329773
 O         1.048146        -0.460960        -0.192707
 C         1.059161         0.556199         2.223913
 H         0.944305        -0.018987         5.130680
 H         0.955699        -2.108787         1.958137
 H         0.081014        -2.609055         3.689566
 H        -1.777911        -1.096296         3.055426
 H        -1.345489        -0.757985         0.233821
 H        -1.674367         0.677133         1.205360
 H         0.421659         1.326002        -1.052516
 H         1.944616         1.611724        -0.338063
 H         2.118012         0.269371         2.208807
 H         0.951122         1.543034         2.522364
