19
Iteration:  4863charge 0 multiplicity 1
 O         0.241484        -0.104410         4.538582
 C         0.333434        -0.341282         3.146589
 C         0.599892        -1.826342         2.885845
 C        -0.768367        -1.074684         2.504179
 C        -0.928100        -0.563612         1.121003
 C         0.316204         0.235207         0.825758
 C         0.615748         1.050889        -0.235647
 O         1.277800        -0.167051        -0.036728
 C         0.795344         0.750146         2.261187
 H         1.026796         0.508916         4.615457
 H         1.066783        -2.271573         1.971071
 H         0.622720        -2.420888         3.809839
 H        -1.634625        -1.368535         3.083624
 H        -1.215471        -1.291610         0.418810
 H        -1.679084         0.226910         0.955683
 H        -0.201171         1.213216        -0.989935
 H         1.248067         1.845127        -0.067061
 H         1.933220         0.742761         2.260322
 H         0.459302         1.815703         2.530074
