19
Iteration:  3737
 O         0.433672        -0.011136         4.547732
 C         0.267587        -0.481923         3.151146
 C         0.485114        -1.835902         2.693784
 C        -0.924138        -1.025560         2.437504
 C        -1.059674        -0.224988         1.062761
 C         0.316721         0.446403         0.966188
 C         0.936534         0.892722        -0.422883
 O         1.127492        -0.386030         0.215110
 C         0.903888         0.751531         2.312497
 H        -0.001850        -0.827164         4.944618
 H         1.152762        -1.932137         1.795472
 H         0.217518        -2.665020         3.433561
 H        -1.676958        -1.621138         3.000783
 H        -1.329899        -0.616368        -0.003640
 H        -1.826377         0.558292         1.374400
 H         0.270785         0.806900        -1.187694
 H         1.863615         1.457420        -0.427524
 H         2.018083         0.761217         2.129257
 H         0.728334         1.594373         3.055060
