19
Iteration:  1206
 O         0.194742         0.003609         4.464569
 C         0.394088        -0.497703         3.201172
 C         0.127578        -1.963422         2.748975
 C        -0.911986        -0.844800         2.525523
 C        -1.011249        -0.154071         1.146259
 C         0.430321         0.292601         0.957441
 C         0.867421         1.008790        -0.255792
 O         1.262117        -0.344671        -0.022457
 C         1.108120         0.507346         2.244534
 H         1.026723        -0.146753         5.013129
 H         0.719887        -2.420494         1.865599
 H        -0.027676        -2.600023         3.613150
 H        -1.721852        -0.808671         3.295011
 H        -1.246800        -0.807754         0.312850
 H        -1.855382         0.606305         1.175734
 H         0.392440         1.178335        -1.276974
 H         1.709246         1.642725         0.077055
 H         2.228189         0.549367         2.189186
 H         0.914336         1.500721         2.566046
