19
Iteration:  1855charge 0 multiplicity 1
 O         0.127175        -0.060797         4.536234
 C         0.350807        -0.463348         3.223507
 C         0.418782        -1.877022         2.534368
 C        -0.752418        -0.889099         2.391522
 C        -1.092489         0.001224         1.245978
 C         0.350473         0.370638         0.908548
 C         0.992407         0.888150        -0.233041
 O         1.146248        -0.520856         0.099260
 C         0.971908         0.573711         2.282122
 H         0.885057         0.111088         5.127944
 H         1.138656        -1.863249         1.667878
 H         0.303549        -2.731465         3.208149
 H        -1.584461        -1.401881         2.987212
 H        -1.659760        -0.250124         0.369063
 H        -1.749217         0.771846         1.530271
 H         0.352100         1.083683        -1.221034
 H         1.948397         1.457350        -0.323647
 H         2.147772         0.803889         2.445994
 H         0.466384         1.486872         2.532583
