19
Iteration:  3820
 O         0.391412        -0.016645         4.591559
 C         0.296704        -0.443604         3.285808
 C         0.225656        -1.921971         2.906165
 C        -0.890552        -0.971255         2.451391
 C        -0.935946        -0.399440         1.058209
 C         0.422054         0.332597         0.906516
 C         0.685225         1.075830        -0.358618
 O         1.235233        -0.227086        -0.079514
 C         1.094777         0.552249         2.280871
 H        -0.284408         0.594727         4.852107
 H         1.005323        -2.305191         2.210233
 H         0.050028        -2.704590         3.599861
 H        -1.860015        -0.967160         2.958118
 H        -0.884011        -1.126432         0.303898
 H        -1.847443         0.166798         0.975418
 H        -0.028020         1.265132        -1.241903
 H         1.475561         1.835471        -0.357112
 H         2.152951         0.343568         2.196602
 H         0.931661         1.528020         2.673569
