19
Iteration:  1654charge 0 multiplicity 1
 O         0.223597         0.074232         4.517986
 C         0.237356        -0.441171         3.227558
 C         0.120973        -1.969568         3.014255
 C        -1.014507        -0.944386         2.517765
 C        -0.918414        -0.325775         1.068215
 C         0.465410         0.415398         0.964316
 C         0.798594         1.129316        -0.300852
 O         1.312571        -0.165420        -0.238178
 C         1.275161         0.297735         2.296471
 H         0.760629        -0.487365         5.138794
 H         0.477015        -2.655788         2.222856
 H        -0.271167        -2.518864         3.831927
 H        -2.077052        -1.104741         2.857782
 H        -1.025925        -1.031702         0.227675
 H        -1.713874         0.544487         1.069998
 H        -0.073613         1.257557        -0.995520
 H         1.564958         1.891844        -0.408321
 H         2.122816        -0.238164         2.121423
 H         1.589747         1.300746         2.723519
