19
Iteration:  3309charge 0 multiplicity 1
 O         0.454866        -0.131742         4.506352
 C         0.318381        -0.392403         3.161039
 C         0.163387        -1.881508         2.631097
 C        -0.932791        -0.794371         2.433319
 C        -1.016172        -0.142766         1.093299
 C         0.411012         0.308295         0.941115
 C         0.865303         0.871988        -0.311041
 O         1.243464        -0.411087         0.212744
 C         1.005424         0.701754         2.310321
 H        -0.030346        -0.815298         5.008167
 H         0.689233        -2.160883         1.749518
 H         0.159747        -2.625578         3.471350
 H        -1.878886        -1.024749         2.981300
 H        -1.253812        -0.815124         0.263456
 H        -1.829908         0.534642         1.173023
 H         0.311685         0.873647        -1.336829
 H         1.640859         1.637976        -0.209836
 H         2.096071         0.770599         2.348267
 H         0.662562         1.681289         2.667323
