19
Iteration:  4979
 O         0.275229         0.111731         4.599662
 C         0.298386        -0.355269         3.215584
 C         0.569226        -1.858764         2.848591
 C        -0.683522        -1.173898         2.489890
 C        -0.926090        -0.669418         1.131910
 C         0.291722         0.272828         0.850272
 C         0.609764         1.115789        -0.304385
 O         1.277011        -0.114262        -0.145510
 C         0.813749         0.705249         2.317302
 H         0.478207        -0.713616         5.107693
 H         1.330849        -1.983025         2.096030
 H         0.475253        -2.574830         3.639019
 H        -1.591896        -1.497596         2.929397
 H        -0.995463        -1.583539         0.423026
 H        -1.878929        -0.190103         1.013161
 H        -0.215562         1.094347        -1.143989
 H         1.098978         2.114204        -0.208610
 H         1.894779         0.712564         2.388809
 H         0.398962         1.662201         2.620923
