19
Iteration:  1620
 O         0.307351        -0.080289         4.586907
 C         0.327664        -0.480457         3.235043
 C         0.018869        -1.953331         2.946314
 C        -0.972928        -0.685707         2.560361
 C        -0.919260        -0.393238         1.014063
 C         0.456144         0.200759         0.871248
 C         0.808615         1.162692        -0.169865
 O         1.373051        -0.225680        -0.151354
 C         1.101763         0.462512         2.178544
 H         1.258911         0.160945         4.807769
 H         0.399369        -2.464303         2.008922
 H        -0.381933        -2.594401         3.696252
 H        -2.021606        -0.801276         3.058360
 H        -1.172934        -1.260123         0.366777
 H        -1.779761         0.309932         0.668433
 H         0.073413         1.324978        -0.996850
 H         1.559455         1.928135        -0.082228
 H         2.100634         0.432445         2.168099
 H         0.740902         1.523518         2.433874
