19
Iteration:    32charge 0 multiplicity 1
 O         0.439091        -0.252939         4.647122
 C         0.233013        -0.299765         3.254575
 C         0.088324        -1.757470         2.662722
 C        -0.964460        -0.719043         2.578173
 C        -1.010986        -0.388777         1.089291
 C         0.458093         0.189430         0.885975
 C         0.983009         0.971368        -0.322531
 O         1.330949        -0.356692        -0.038447
 C         0.853381         0.736488         2.276310
 H         1.353462        -0.633885         4.670513
 H         0.608154        -2.025927         1.785554
 H        -0.053545        -2.377183         3.518787
 H        -1.900262        -0.836627         3.087932
 H        -1.312326        -1.300666         0.522663
 H        -1.654496         0.289420         0.777281
 H         0.343777         1.398070        -1.092564
 H         1.802076         1.493659        -0.207483
 H         1.893736         0.725132         2.366970
 H         0.423802         1.655134         2.468327
