19
Iteration:  2116charge 0 multiplicity 1
 O         0.277826        -0.206781         4.603224
 C         0.312869        -0.359346         3.228879
 C         0.171837        -1.801329         2.760876
 C        -0.958433        -0.758700         2.563972
 C        -0.953766        -0.335912         1.092074
 C         0.445902         0.274721         0.934908
 C         0.884677         0.991446        -0.331008
 O         1.305995        -0.334603        -0.074656
 C         1.021853         0.673829         2.265579
 H         0.738250        -0.933540         5.012168
 H         0.515568        -2.133151         1.795694
 H         0.069986        -2.592785         3.487190
 H        -1.822411        -0.871145         3.192840
 H        -1.218567        -1.086930         0.329298
 H        -1.804855         0.342750         0.735262
 H         0.078452         1.097697        -1.099348
 H         1.581227         1.760788        -0.214519
 H         2.102657         0.536927         2.405864
 H         0.829091         1.749491         2.443560
