19
Iteration:  3018charge 0 multiplicity 1
 O         0.347775        -0.089422         4.591805
 C         0.319083        -0.417359         3.192886
 C         0.172971        -1.922643         2.790919
 C        -0.915854        -0.934559         2.467211
 C        -1.053566        -0.136906         1.132426
 C         0.383623         0.405172         0.891110
 C         0.910877         0.936511        -0.363492
 O         1.339144        -0.344123         0.014385
 C         0.991185         0.638264         2.241534
 H         0.449772        -0.919978         5.052295
 H         0.763986        -2.456374         2.088475
 H        -0.031671        -2.542876         3.601995
 H        -1.821084        -1.140412         2.977231
 H        -1.289264        -0.742214         0.283738
 H        -1.731261         0.666227         1.356253
 H         0.258979         0.725424        -1.253298
 H         1.579303         1.784839        -0.326440
 H         2.061678         0.598271         2.381069
 H         0.582115         1.570427         2.633148
