19
Iteration:  3357charge 0 multiplicity 1
 O         0.402091        -0.244267         4.622773
 C         0.275471        -0.378259         3.194778
 C         0.213390        -1.779801         2.647123
 C        -1.016972        -0.824887         2.514109
 C        -1.032201        -0.139530         1.128834
 C         0.384165         0.262520         0.818299
 C         0.965274         0.899495        -0.384060
 O         1.334481        -0.438713         0.117815
 C         0.865327         0.728331         2.316888
 H         1.383164        -0.343995         4.760270
 H         0.794621        -2.145423         1.777153
 H        -0.061062        -2.466451         3.410007
 H        -1.848861        -1.068625         3.156812
 H        -1.646538        -0.690011         0.356449
 H        -1.531267         0.864510         1.281352
 H         0.449147         0.890643        -1.340881
 H         1.772272         1.643068        -0.426234
 H         1.986176         0.661821         2.426734
 H         0.570189         1.781234         2.649137
