19
Iteration:  2539charge 0 multiplicity 1
 O         0.118555        -0.271277         4.614047
 C         0.354857        -0.334575         3.248360
 C         0.418128        -1.781201         2.644085
 C        -0.877351        -0.883861         2.503823
 C        -1.085882        -0.140776         1.185748
 C         0.346187         0.406011         0.919620
 C         1.045163         0.871806        -0.418381
 O         1.134444        -0.471058         0.021428
 C         1.002847         0.745361         2.264645
 H         0.949560        -0.458148         5.084072
 H         1.027675        -1.926160         1.772084
 H         0.358637        -2.517192         3.496641
 H        -1.718252        -1.056828         3.054337
 H        -1.358153        -0.756501         0.331719
 H        -1.830892         0.682421         1.241070
 H         0.480412         1.062953        -1.367590
 H         1.973811         1.372967        -0.258678
 H         2.118654         0.571239         2.211230
 H         0.994489         1.725074         2.820666
