19
Iteration:  3591charge 0 multiplicity 1
 O         0.232426         0.124025         4.588757
 C         0.264027        -0.404830         3.287081
 C         0.280689        -1.877737         2.991891
 C        -0.855334        -0.930776         2.501002
 C        -0.905796        -0.410027         1.083619
 C         0.441639         0.180851         0.815349
 C         0.876302         1.179173        -0.169660
 O         1.146940        -0.219019        -0.309502
 C         1.112484         0.348100         2.271181
 H        -0.467840        -0.467885         4.862914
 H         0.967837        -2.109660         2.252836
 H        -0.089331        -2.609223         3.727690
 H        -1.910869        -0.858673         2.921746
 H        -1.126590        -1.142236         0.335807
 H        -1.712660         0.435498         1.005827
 H         0.177425         1.444095        -0.962836
 H         1.558465         1.876007         0.084335
 H         2.127266        -0.063735         2.081397
 H         1.346469         1.429332         2.575770
