19
Iteration:  3529charge 0 multiplicity 1
 O         0.271422         0.018053         4.537534
 C         0.334102        -0.483525         3.253937
 C         0.023585        -1.877241         3.053650
 C        -1.016503        -0.829280         2.568108
 C        -0.949505        -0.440604         1.102516
 C         0.477371         0.112103         0.861148
 C         0.717918         1.169282        -0.222397
 O         1.468238        -0.066814        -0.301324
 C         1.171344         0.316139         2.232077
 H         0.845955         0.770433         4.613281
 H         0.604025        -2.355271         2.310877
 H        -0.225326        -2.634690         3.859680
 H        -2.003659        -0.883330         2.997577
 H        -1.173365        -1.312986         0.412726
 H        -1.673450         0.336990         0.874930
 H        -0.170420         1.013444        -0.877069
 H         1.201561         2.178088        -0.197932
 H         2.234264         0.212333         2.090336
 H         0.941653         1.279297         2.667168
