19
Iteration:  2878
 O         0.096495        -0.013943         4.672327
 C         0.380443        -0.390387         3.198830
 C         0.287921        -1.827088         2.791603
 C        -0.869996        -0.969814         2.481783
 C        -1.030029        -0.257672         1.131847
 C         0.391390         0.351018         0.890631
 C         0.841060         0.974795        -0.340593
 O         1.251983        -0.287954        -0.143658
 C         1.166985         0.497791         2.263753
 H         0.452774        -0.712941         5.235201
 H         1.067030        -2.123764         2.141667
 H         0.199990        -2.484976         3.638350
 H        -1.810082        -1.097134         3.121833
 H        -1.209935        -0.859501         0.281658
 H        -1.796959         0.526278         1.281493
 H         0.146620         1.246265        -1.214456
 H         1.575400         1.747205        -0.055660
 H         2.131503         0.017760         2.091134
 H         1.155099         1.456557         2.726099
