19
Iteration:  3940charge 0 multiplicity 1
 O         0.303964         0.117609         4.559524
 C         0.308316        -0.476252         3.222257
 C         0.290680        -1.921484         2.950094
 C        -0.857522        -0.943355         2.512299
 C        -0.914037        -0.495215         1.126081
 C         0.399325         0.269020         0.906475
 C         0.652109         1.188935        -0.304937
 O         1.285306        -0.158430        -0.258182
 C         1.117338         0.401853         2.295942
 H        -0.395881        -0.240681         5.199808
 H         0.891956        -2.328905         2.235590
 H         0.041609        -2.673794         3.678529
 H        -1.833783        -1.022321         3.112306
 H        -1.261330        -1.207714         0.225551
 H        -1.756544         0.310268         1.194733
 H        -0.126566         1.334595        -1.075805
 H         1.439795         1.994944        -0.198269
 H         2.205936         0.227834         2.338062
 H         0.928437         1.409252         2.685338
