19
Iteration:  1936charge 0 multiplicity 1
 O         0.394409        -0.007010         4.581773
 C         0.313464        -0.459755         3.176033
 C         0.009510        -1.878460         2.785271
 C        -1.045155        -0.830576         2.524633
 C        -1.006412        -0.379015         1.106392
 C         0.452314         0.231865         0.887016
 C         0.857366         1.038482        -0.277907
 O         1.462254        -0.193170        -0.106283
 C         0.988730         0.522846         2.276952
 H         0.823644        -0.737138         5.113476
 H         0.582087        -2.402798         2.019034
 H        -0.151766        -2.542171         3.618121
 H        -1.874714        -0.767053         3.198505
 H        -1.078209        -1.275313         0.458964
 H        -1.704822         0.569297         1.001319
 H         0.048085         1.020878        -0.932354
 H         1.526867         1.868839        -0.067264
 H         2.058120         0.409573         2.243466
 H         0.740855         1.544924         2.716818
