19
Iteration:   963charge 0 multiplicity 1
 O         0.150171         0.053915         4.674182
 C         0.311327        -0.415521         3.231624
 C         0.178081        -1.945674         2.916051
 C        -0.854690        -0.849961         2.464483
 C        -0.964785        -0.259841         1.091669
 C         0.469249         0.221731         0.885876
 C         0.919253         1.051954        -0.219401
 O         1.186792        -0.258880        -0.372573
 C         1.134356         0.423682         2.307229
 H         0.574517        -0.564705         5.258534
 H         0.910096        -2.329423         2.140564
 H        -0.160488        -2.606283         3.753328
 H        -1.761113        -0.826613         3.072681
 H        -1.282580        -1.014464         0.456793
 H        -1.819082         0.491842         1.195401
 H         0.343426         1.567951        -0.984953
 H         1.819212         1.635090        -0.123727
 H         2.205256         0.193028         2.264836
 H         0.966870         1.445173         2.723735
