19
Iteration:  3899charge 0 multiplicity 1
 O         0.235149         0.107285         4.533761
 C         0.296036        -0.388089         3.304735
 C         0.221192        -1.892550         2.969560
 C        -0.854138        -0.969931         2.507551
 C        -0.880334        -0.527586         1.038483
 C         0.428629         0.276938         0.896634
 C         0.637818         1.199655        -0.236191
 O         1.219338        -0.158151        -0.245566
 C         1.212450         0.394289         2.252607
 H         0.521535        -0.677010         4.983379
 H         1.004706        -2.298299         2.272951
 H        -0.121611        -2.571787         3.900602
 H        -1.753276        -1.064238         3.167062
 H        -1.011723        -1.266077         0.302325
 H        -1.774763         0.048213         0.891679
 H        -0.144188         1.203407        -0.977694
 H         1.303947         2.119094        -0.024514
 H         2.298522         0.223591         2.218176
 H         1.170114         1.421154         2.570663
