19
Iteration:  3377charge 0 multiplicity 1
 O         0.244195        -0.311153         4.565554
 C         0.411446        -0.352717         3.155450
 C         0.201626        -1.797801         2.721731
 C        -0.892249        -0.815066         2.510341
 C        -1.027765        -0.153047         1.128718
 C         0.383869         0.366156         0.933830
 C         0.938550         0.879545        -0.274221
 O         1.220605        -0.496900         0.041034
 C         1.020738         0.742159         2.235885
 H         1.045120         0.118143         4.833706
 H         0.630108        -2.105107         1.761423
 H         0.168662        -2.407481         3.551621
 H        -1.860195        -0.797072         3.113058
 H        -1.233353        -1.005725         0.397125
 H        -1.749951         0.581032         0.907120
 H         0.226304         1.260991        -1.136063
 H         1.725840         1.629156        -0.133487
 H         2.106246         0.918610         2.214208
 H         0.573902         1.711732         2.574704
