19
Iteration:   765charge 0 multiplicity 1
 O         0.241298        -0.300028         4.595313
 C         0.330537        -0.386434         3.183052
 C         0.196450        -1.777996         2.671296
 C        -0.938210        -0.725637         2.553185
 C        -0.983537        -0.251738         1.159677
 C         0.409419         0.421983         0.922547
 C         0.927853         0.858367        -0.386988
 O         1.270324        -0.460598         0.012532
 C         1.003862         0.752433         2.273325
 H         1.171334        -0.240686         5.006391
 H         0.748535        -1.987489         1.830467
 H         0.037587        -2.565057         3.413461
 H        -1.826909        -0.852047         3.228946
 H        -1.170201        -0.992713         0.430095
 H        -1.839230         0.560561         1.080081
 H         0.286752         1.014852        -1.229663
 H         1.642805         1.689888        -0.353715
 H         2.071954         0.425606         2.367093
 H         0.837381         1.839384         2.715002
