19
Iteration:  3173
 O         0.389244        -0.019207         4.648339
 C         0.234231        -0.372215         3.261032
 C         0.078514        -1.794733         2.953883
 C        -1.004250        -0.892781         2.480843
 C        -0.871941        -0.445442         0.976863
 C         0.548255         0.167814         0.902777
 C         0.785750         1.131503        -0.160710
 O         1.248216        -0.198282        -0.273597
 C         1.109141         0.466833         2.259556
 H         0.237571        -0.873657         5.085972
 H         0.722348        -2.332720         2.251066
 H        -0.139813        -2.264478         3.941718
 H        -2.090151        -1.037953         2.923475
 H        -1.065094        -1.246621         0.243364
 H        -1.607985         0.419017         0.882555
 H        -0.006186         1.388778        -0.906212
 H         1.483711         2.024974        -0.303165
 H         2.182324         0.159555         2.103421
 H         1.040310         1.541094         2.413307
