19
Iteration:  2319charge 0 multiplicity 1
 O         0.283814         0.013355         4.628381
 C         0.245720        -0.383044         3.237312
 C         0.152656        -1.828527         2.917471
 C        -1.034578        -0.873765         2.483211
 C        -0.943650        -0.406546         1.051407
 C         0.478258         0.226173         0.911718
 C         0.918792         1.121658        -0.170213
 O         1.207654        -0.242135        -0.334149
 C         1.143844         0.424740         2.333336
 H         1.160822        -0.058773         4.983139
 H         0.533084        -2.401317         1.992993
 H        -0.277981        -2.610003         3.610033
 H        -2.009311        -1.214675         2.918044
 H        -0.876649        -1.265357         0.357340
 H        -1.829087         0.152194         0.934595
 H         0.309687         1.697519        -0.898015
 H         1.865615         1.765195         0.045634
 H         2.252434         0.212936         2.237141
 H         0.976528         1.444635         2.660135
