19
Iteration:  4274charge 0 multiplicity 1
 O         0.323118         0.083078         4.548777
 C         0.277857        -0.425262         3.246535
 C         0.312991        -1.930008         2.995684
 C        -0.853887        -0.966962         2.543427
 C        -0.874993        -0.560876         1.108394
 C         0.438721         0.325516         0.878877
 C         0.606404         1.137062        -0.354121
 O         1.258771        -0.084830        -0.266161
 C         1.079626         0.467943         2.347047
 H        -0.362323        -0.489700         5.022117
 H         0.867036        -2.205547         2.046241
 H         0.109050        -2.647932         3.742771
 H        -1.755031        -1.060524         3.172526
 H        -1.035358        -1.305181         0.411756
 H        -1.786294         0.066213         0.972947
 H        -0.202281         1.041789        -1.042275
 H         1.370871         1.969420        -0.498324
 H         2.137195         0.194957         2.262598
 H         1.021021         1.334917         2.915997
