19
Iteration:  1376charge 0 multiplicity 1
 O         0.073814        -0.014664         4.555932
 C         0.424678        -0.472089         3.266713
 C         0.192007        -1.867095         2.801131
 C        -0.885409        -0.784627         2.498975
 C        -0.920313        -0.305870         1.092732
 C         0.482372         0.224161         0.954846
 C         0.913813         1.084480        -0.210653
 O         1.129066        -0.317974        -0.189971
 C         1.143175         0.471579         2.263303
 H         0.849438        -0.139554         5.162015
 H         0.605327        -2.202253         1.818475
 H        -0.332444        -2.516277         3.468725
 H        -1.704941        -0.846605         3.213301
 H        -0.962911        -1.247713         0.416572
 H        -1.743213         0.432761         1.058256
 H         0.221972         1.478671        -0.906781
 H         1.820284         1.797199        -0.167149
 H         2.236418         0.250660         2.103867
 H         1.057361         1.531724         2.693354
