19
Iteration:  3914charge 0 multiplicity 1
 O         0.269078         0.147420         4.577892
 C         0.353988        -0.441432         3.174641
 C         0.225930        -1.884327         2.984392
 C        -0.900093        -1.053391         2.424336
 C        -0.798684        -0.469828         1.059807
 C         0.485260         0.281374         0.953680
 C         0.598239         1.176604        -0.248447
 O         1.152824        -0.166960        -0.208191
 C         1.169982         0.454791         2.295578
 H         0.125759        -0.558859         5.296330
 H         0.837281        -2.519837         2.232358
 H         0.078830        -2.495482         3.874924
 H        -1.857815        -1.115957         2.867782
 H        -0.894821        -1.301273         0.182166
 H        -1.691992         0.269681         0.847191
 H        -0.306991         1.387186        -0.846144
 H         1.398653         1.834870        -0.397701
 H         2.185747        -0.069859         2.282634
 H         1.266345         1.555128         2.736523
