19
Iteration:  2490charge 0 multiplicity 1
 O         0.324849        -0.142814         4.521189
 C         0.255984        -0.424294         3.172055
 C         0.214649        -1.838276         2.659750
 C        -0.962032        -0.886417         2.429847
 C        -0.957805        -0.135007         1.142092
 C         0.464146         0.419563         0.984016
 C         0.855083         0.837130        -0.372860
 O         1.345785        -0.444072         0.083549
 C         0.947322         0.692424         2.389487
 H         1.171673        -0.611140         4.679899
 H         0.727747        -2.099752         1.747654
 H        -0.007803        -2.492805         3.446007
 H        -1.887534        -1.171206         3.048161
 H        -1.364798        -0.610143         0.188362
 H        -1.706183         0.757969         1.345904
 H        -0.019016         0.818455        -1.014088
 H         1.442183         1.763835        -0.604726
 H         2.011882         0.790941         2.605232
 H         0.605307         1.679615         2.757916
