19
Iteration:  3983
 O         0.411937        -0.062960         4.514492
 C         0.321925        -0.376832         3.196808
 C         0.343260        -1.815558         2.858682
 C        -0.877825        -0.983749         2.520207
 C        -0.999076        -0.466354         1.103437
 C         0.375481         0.284875         0.920169
 C         0.768212         1.077184        -0.295067
 O         1.255781        -0.225875        -0.137570
 C         0.952970         0.550462         2.363957
 H        -0.449473         0.380307         4.775353
 H         0.925942        -2.127281         2.091146
 H         0.267072        -2.490727         3.702819
 H        -1.899826        -1.006278         2.991947
 H        -1.200006        -1.371130         0.380053
 H        -1.794184         0.364721         0.987012
 H         0.012573         1.223467        -1.068785
 H         1.523381         1.859874        -0.108715
 H         2.020178         0.364134         2.195431
 H         0.808542         1.605575         2.726731
