19
Iteration:   796charge 0 multiplicity 1
 O         0.178615        -0.096388         4.561142
 C         0.324710        -0.490664         3.197615
 C         0.361306        -1.828723         2.664928
 C        -0.883907        -0.944585         2.433284
 C        -1.008798        -0.036506         1.197433
 C         0.449066         0.367310         0.933937
 C         0.913099         0.896363        -0.387184
 O         1.177002        -0.495046         0.060883
 C         1.006361         0.668991         2.246805
 H         0.853527        -0.407771         5.136337
 H         1.161977        -2.023616         2.048875
 H         0.112485        -2.593331         3.398667
 H        -1.799614        -1.067506         2.936468
 H        -1.589621        -0.276548         0.319957
 H        -1.437908         0.849806         1.659301
 H         0.185144         0.973858        -1.166792
 H         1.729713         1.599853        -0.180614
 H         2.021187         0.605005         2.454935
 H         0.631990         1.630695         2.719740
