19
Iteration:  3319
 O         0.491696        -0.079224         4.525647
 C         0.309793        -0.401123         3.150311
 C         0.158177        -1.827846         2.568063
 C        -0.978355        -0.878485         2.435663
 C        -1.050291        -0.159161         1.093731
 C         0.378181         0.423002         0.989860
 C         0.876892         0.828547        -0.318939
 O         1.347629        -0.462306         0.174708
 C         0.932813         0.699553         2.368138
 H         0.384203        -0.873769         5.115372
 H         0.663523        -2.250389         1.708570
 H        -0.080419        -2.628164         3.350504
 H        -1.920776        -1.048419         2.960020
 H        -1.371687        -0.803870         0.297215
 H        -1.537420         0.787254         1.087763
 H         0.132737         0.861729        -1.217785
 H         1.591518         1.680805        -0.260747
 H         1.979602         0.539618         2.158754
 H         0.720178         1.610275         2.883755
