19
Iteration:  1460charge 0 multiplicity 1
 O         0.427527        -0.105228         4.460451
 C         0.324927        -0.400361         3.087900
 C         0.082031        -1.882261         2.662503
 C        -0.976386        -0.799722         2.538879
 C        -1.020562        -0.250705         1.144567
 C         0.422968         0.376065         0.937495
 C         0.957782         0.928915        -0.253418
 O         1.309720        -0.414044         0.105931
 C         0.974911         0.700259         2.288153
 H         0.105790        -0.885460         4.967394
 H         0.501243        -2.409935         1.836745
 H         0.242436        -2.474841         3.523920
 H        -1.957880        -1.024058         3.084010
 H        -1.208919        -1.059924         0.400466
 H        -1.865816         0.384764         1.081162
 H         0.229583         1.061230        -1.098588
 H         1.743278         1.758692        -0.076126
 H         2.148991         0.756108         2.296962
 H         0.593145         1.561732         2.773054
