19
Iteration:  2736
 O         0.209542         0.239741         4.564474
 C         0.284560        -0.524893         3.254763
 C         0.064377        -2.004909         3.003886
 C        -0.952937        -0.898000         2.453607
 C        -0.790078        -0.416026         1.098476
 C         0.544851         0.228322         0.867333
 C         0.829201         1.195795        -0.127816
 O         1.106998        -0.090344        -0.449323
 C         1.348773         0.214332         2.380174
 H        -0.627796         0.289379         5.020517
 H         0.857610        -2.488417         2.391617
 H        -0.256060        -2.614384         3.822835
 H        -1.952249        -1.070055         2.994475
 H        -0.818783        -1.286111         0.412165
 H        -1.708571         0.308274         0.827304
 H        -0.130160         1.465490        -0.531261
 H         1.477819         1.968556        -0.097383
 H         2.288094        -0.371041         2.222439
 H         1.370318         1.309753         2.640721
