19
Iteration:  3253
 O         0.239369        -0.135462         4.669056
 C         0.260995        -0.432612         3.271514
 C         0.316353        -1.742812         2.795143
 C        -0.920911        -0.911718         2.436406
 C        -0.961948        -0.149516         1.097239
 C         0.501608         0.227092         0.923754
 C         0.873409         1.057117        -0.325168
 O         1.177538        -0.411426        -0.123030
 C         1.040956         0.490705         2.257002
 H         0.321550         0.812059         4.757438
 H         1.040004        -2.023778         1.953747
 H         0.175104        -2.622896         3.470294
 H        -1.754237        -1.272901         2.942322
 H        -1.311811        -0.738083         0.292264
 H        -1.652548         0.618604         1.336162
 H        -0.053371         1.415440        -0.808482
 H         1.813458         1.683441        -0.208813
 H         2.135188         0.338107         2.223992
 H         0.794829         1.492627         2.559661
