19
Iteration:  1508charge 0 multiplicity 1
 O         0.297701        -0.064665         4.671048
 C         0.245695        -0.401562         3.264108
 C         0.427691        -1.765227         2.588756
 C        -0.902298        -0.963708         2.372497
 C        -1.034736        -0.001394         1.163682
 C         0.402729         0.339739         0.912855
 C         0.939634         0.895538        -0.298238
 O         1.171994        -0.558612        -0.051111
 C         0.977861         0.646718         2.390221
 H        -0.061281        -0.823451         5.160692
 H         1.236420        -2.019787         1.862909
 H         0.072390        -2.786068         3.004014
 H        -1.723090        -1.247763         2.943650
 H        -1.447649        -0.558518         0.219108
 H        -1.670428         0.968694         1.289348
 H         0.269118         1.096681        -1.173290
 H         1.944146         1.474978        -0.318402
 H         2.028659         0.580701         2.549748
 H         0.664094         1.705314         2.546493
