19
Iteration:  3029charge 0 multiplicity 1
 O         0.281998        -0.109488         4.551462
 C         0.305651        -0.425075         3.177405
 C         0.250555        -1.842028         2.831744
 C        -0.952415        -0.932580         2.455968
 C        -0.997319        -0.198230         1.183490
 C         0.379763         0.296983         0.928943
 C         0.866445         0.980511        -0.326515
 O         1.305869        -0.348467         0.009707
 C         1.074648         0.644239         2.207078
 H         0.158951        -0.941274         5.079647
 H         0.753291        -2.310948         2.048821
 H        -0.078600        -2.369789         3.645228
 H        -1.854038        -1.033911         2.970300
 H        -1.343539        -0.649374         0.275139
 H        -1.716618         0.588291         1.218197
 H         0.259288         1.376344        -1.216504
 H         1.714185         1.617070        -0.218013
 H         2.112514         0.518170         1.894821
 H         0.971268         1.668399         2.554070
