19
Iteration:  2006
 O         0.092646         0.052969         4.592203
 C         0.227276        -0.427596         3.260180
 C         0.125812        -1.872610         2.917572
 C        -0.931635        -0.859081         2.532896
 C        -0.826035        -0.393036         1.148587
 C         0.572547         0.196145         0.910129
 C         0.833284         1.209574        -0.240217
 O         1.165561        -0.176734        -0.360292
 C         1.251351         0.301624         2.294849
 H         0.680167        -0.442888         5.239667
 H         0.794348        -2.380044         2.160028
 H        -0.181868        -2.583662         3.733999
 H        -1.780657        -0.707003         3.209314
 H        -0.895321        -1.192875         0.376317
 H        -1.533287         0.517793         0.902540
 H        -0.094576         1.490442        -0.767503
 H         1.745421         1.742394        -0.351097
 H         2.168637        -0.243136         2.273360
 H         1.430681         1.351890         2.341631
