19
Iteration:  1177
 O         0.141750        -0.190891         4.656757
 C         0.250898        -0.319799         3.253817
 C         0.328386        -1.744124         2.734991
 C        -0.916529        -0.891963         2.468239
 C        -1.004061        -0.122805         1.185236
 C         0.508674         0.298650         0.924903
 C         0.965467         0.953718        -0.343590
 O         1.113023        -0.438730        -0.148301
 C         1.087298         0.522275         2.305802
 H         1.015667        -0.067845         5.035961
 H         0.938020        -1.980386         1.965108
 H         0.134984        -2.493766         3.446792
 H        -1.794116        -1.148843         2.996650
 H        -1.376034        -0.594190         0.155045
 H        -1.752067         0.665678         1.271694
 H         0.394421         1.306510        -1.232219
 H         1.911258         1.383394        -0.204956
 H         2.256991         0.404063         2.361612
 H         1.045820         1.662156         2.443319
