19
Iteration:  1010charge 0 multiplicity 1
 O         0.131568         0.071422         4.490460
 C         0.356303        -0.440449         3.284154
 C         0.241704        -1.932842         2.775952
 C        -0.897501        -0.954142         2.454012
 C        -1.012037        -0.119428         1.149878
 C         0.431849         0.402516         0.933403
 C         0.833462         1.006821        -0.291215
 O         1.241527        -0.355968        -0.076427
 C         1.191136         0.400758         2.299232
 H         0.521045        -0.532254         5.162476
 H         0.906686        -2.442013         2.030508
 H        -0.182680        -2.612020         3.614806
 H        -1.723723        -1.140842         3.119124
 H        -1.344730        -0.774854         0.275630
 H        -1.673077         0.797407         1.223846
 H         0.140407         1.221177        -1.069354
 H         1.462579         1.900069        -0.370517
 H         2.254486        -0.152546         2.011774
 H         1.432072         1.359828         2.833702
