19
Iteration:  3589charge 0 multiplicity 1
 O         0.233324         0.128563         4.584426
 C         0.245649        -0.407975         3.264819
 C         0.298429        -1.879211         3.003792
 C        -0.872506        -0.935331         2.497933
 C        -0.901033        -0.401706         1.072293
 C         0.444952         0.194384         0.826437
 C         0.867228         1.173713        -0.158726
 O         1.133605        -0.221920        -0.304269
 C         1.117483         0.343186         2.276343
 H        -0.393258        -0.545774         4.875840
 H         1.027909        -2.206925         2.232122
 H        -0.068294        -2.518532         3.771831
 H        -1.900082        -0.757359         2.982635
 H        -1.015816        -1.150134         0.329394
 H        -1.685455         0.392823         0.905632
 H         0.181108         1.453431        -0.978470
 H         1.620525         1.969346         0.029410
 H         2.108455        -0.130243         2.085504
 H         1.357074         1.373427         2.608337
