19
Iteration:  4348
 O         0.302339        -0.005972         4.618058
 C         0.320260        -0.409051         3.313915
 C         0.306251        -1.994453         2.810396
 C        -0.832515        -1.037825         2.530743
 C        -0.920256        -0.437329         1.117883
 C         0.319411         0.381061         0.866815
 C         0.784037         1.057112        -0.329164
 O         1.250304        -0.243169        -0.124130
 C         0.900792         0.659567         2.230638
 H         1.107122         0.541751         4.721794
 H         1.007373        -2.193852         1.953078
 H         0.161685        -2.659464         3.619219
 H        -1.722453        -1.147041         3.183156
 H        -1.108322        -1.142173         0.338631
 H        -1.836990         0.238302         1.065164
 H         0.085548         1.256382        -1.082423
 H         1.561509         1.745095        -0.113772
 H         1.994213         0.377258         2.064767
 H         0.874180         1.763414         2.579079
