19
Iteration:  4483charge 0 multiplicity 1
 O         0.525337        -0.005447         4.572656
 C         0.319607        -0.463790         3.228300
 C         0.385291        -1.827192         2.675698
 C        -0.891873        -0.936263         2.511169
 C        -1.110979        -0.358585         1.127084
 C         0.292780         0.287532         0.880288
 C         0.817247         1.024825        -0.357638
 O         1.347677        -0.302418         0.051082
 C         0.786973         0.704027         2.301679
 H        -0.039341        -0.521587         5.170185
 H         1.179197        -2.210130         1.964041
 H         0.171599        -2.691664         3.361595
 H        -1.749618        -1.417553         3.014496
 H        -1.182274        -1.245298         0.497824
 H        -1.957899         0.297906         0.823261
 H         0.226008         0.744167        -1.264724
 H         1.505730         1.862085        -0.408330
 H         1.918233         0.735949         2.433354
 H         0.290674         1.638025         2.757544
