19
Iteration:  3326charge 0 multiplicity 1
 O         0.508470        -0.058742         4.551100
 C         0.287277        -0.457297         3.151474
 C         0.166077        -1.781670         2.563932
 C        -1.055344        -0.913883         2.452918
 C        -1.028528        -0.143162         1.128333
 C         0.299031         0.462421         0.995201
 C         0.912291         0.833071        -0.312624
 O         1.417230        -0.472236         0.124798
 C         0.903445         0.672565         2.348370
 H         0.683163        -0.883290         5.021312
 H         0.792349        -2.147413         1.694307
 H        -0.161856        -2.574816         3.253016
 H        -1.907286        -1.089712         3.035478
 H        -1.387580        -0.674765         0.231429
 H        -1.736606         0.809352         1.098279
 H         0.158078         0.706037        -1.004315
 H         1.728519         1.561525        -0.585661
 H         2.015140         0.488571         2.422322
 H         0.710009         1.660341         2.819560
