19
Iteration:  1179
 O         0.137283        -0.186476         4.634098
 C         0.259837        -0.340026         3.265322
 C         0.327331        -1.733696         2.739073
 C        -0.916114        -0.883121         2.467202
 C        -0.999594        -0.140694         1.172026
 C         0.497625         0.306037         0.923839
 C         0.963128         0.972293        -0.325879
 O         1.123731        -0.450526        -0.139824
 C         1.099193         0.522430         2.290370
 H         1.043868        -0.035444         5.030409
 H         0.907851        -2.063791         1.896401
 H         0.058433        -2.510462         3.488440
 H        -1.800601        -1.078632         3.023324
 H        -1.444176        -0.609399         0.233390
 H        -1.741850         0.636390         1.341087
 H         0.343041         1.317624        -1.134182
 H         1.938112         1.416057        -0.197444
 H         2.173940         0.432867         2.345233
 H         1.062895         1.662050         2.407006
