19
Iteration:   365charge 0 multiplicity 1
 O         0.277979        -0.046028         4.659924
 C         0.253858        -0.326143         3.225362
 C         0.127809        -1.833064         2.847441
 C        -0.912473        -0.792483         2.548342
 C        -0.910392        -0.374654         1.130970
 C         0.416066         0.230662         0.875493
 C         0.894026         1.084307        -0.315513
 O         1.321927        -0.312301        -0.224573
 C         1.022778         0.462979         2.261489
 H         0.682510        -0.815446         5.054680
 H         0.826657        -2.187937         2.106331
 H        -0.037278        -2.543572         3.661339
 H        -1.907890        -0.720048         3.081128
 H        -1.275389        -1.255618         0.474451
 H        -1.765974         0.324575         0.926803
 H         0.135546         1.330645        -1.143582
 H         1.558706         1.857243        -0.032064
 H         2.093205         0.271891         2.292283
 H         0.900393         1.480379         2.451522
