19
Iteration:    58charge 0 multiplicity 1
 O         0.472340        -0.143406         4.545409
 C         0.284856        -0.441693         3.160034
 C         0.067180        -1.835802         2.826315
 C        -1.054155        -0.916087         2.511031
 C        -1.028459        -0.214411         1.060020
 C         0.362146         0.428258         0.897538
 C         0.901037         0.889793        -0.364428
 O         1.419655        -0.351544         0.093002
 C         0.938822         0.671009         2.249203
 H         1.221485        -0.729148         4.787751
 H         0.644795        -2.284991         1.949279
 H         0.031581        -2.399185         3.783719
 H        -2.010159        -0.899101         3.084375
 H        -1.162190        -0.896416         0.258639
 H        -1.864604         0.587434         0.915984
 H         0.306574         1.092374        -1.244979
 H         1.720961         1.710108        -0.171705
 H         2.079737         0.596477         2.223540
 H         0.613539         1.590493         2.849889
