19
Iteration:  4732
 O         0.364128        -0.063322         4.560885
 C         0.362028        -0.364706         3.215811
 C         0.612784        -1.726366         2.758692
 C        -0.775267        -1.054207         2.389839
 C        -0.967676        -0.430405         1.128309
 C         0.307045         0.266394         0.897924
 C         0.667495         1.031532        -0.255826
 O         1.204206        -0.342973         0.008122
 C         0.803516         0.691687         2.306676
 H        -0.495720         0.195413         4.929912
 H         1.314626        -1.991862         1.969028
 H         0.453515        -2.482845         3.555302
 H        -1.704257        -1.402593         2.850204
 H        -1.083209        -0.992822         0.263440
 H        -1.861347         0.221408         1.265736
 H         0.124748         1.044947        -1.205722
 H         1.279887         1.916306        -0.074700
 H         1.906642         0.810934         2.139843
 H         0.367625         1.633526         2.633092
