19
Iteration:  2701
 O         0.259609         0.214382         4.432086
 C         0.278922        -0.480107         3.198464
 C         0.162453        -1.936615         3.077736
 C        -0.920558        -0.928717         2.470200
 C        -1.016654        -0.404639         1.091382
 C         0.385883         0.248226         0.894015
 C         0.862051         1.243181        -0.083746
 O         1.297203        -0.132271        -0.186675
 C         1.212134         0.174229         2.106025
 H        -0.230508        -0.430981         4.950175
 H         0.892751        -2.492476         2.395747
 H        -0.159342        -2.358147         4.043411
 H        -1.832778        -0.962010         2.901029
 H        -1.195872        -1.189544         0.362133
 H        -1.770991         0.385507         0.908695
 H         0.106244         1.511099        -0.823644
 H         1.444010         1.983976         0.402167
 H         2.152925        -0.379307         2.065295
 H         1.623483         1.070304         2.532095
