19
Iteration:   906charge 0 multiplicity 1
 O         0.430486        -0.026731         4.580377
 C         0.344325        -0.488859         3.220234
 C        -0.080669        -1.856642         2.857279
 C        -1.057834        -0.823167         2.442141
 C        -0.945895        -0.304412         1.018270
 C         0.517079         0.262169         0.935432
 C         0.716995         1.035446        -0.271302
 O         1.404029        -0.228640        -0.057624
 C         1.081841         0.475736         2.304445
 H         1.399157         0.202316         4.766185
 H         0.479520        -2.311161         2.075552
 H        -0.343219        -2.611510         3.536625
 H        -2.044827        -0.880522         3.048591
 H        -0.962608        -1.131327         0.318553
 H        -1.790622         0.360597         0.783303
 H         0.006150         0.813848        -1.088668
 H         1.462558         1.804477        -0.342423
 H         2.084744         0.291122         2.272081
 H         0.959066         1.373265         2.915147
