19
Iteration:  2591charge 0 multiplicity 1
 O         0.262698         0.053340         4.567486
 C         0.299774        -0.406261         3.244715
 C         0.196643        -1.917689         2.708660
 C        -0.939573        -0.961375         2.476868
 C        -1.035104        -0.233470         1.134818
 C         0.390817         0.342199         0.964187
 C         0.863025         1.011605        -0.299169
 O         1.344454        -0.326411        -0.084578
 C         1.067892         0.456557         2.285100
 H         1.123393        -0.181969         5.009545
 H         0.815517        -2.192878         1.838605
 H         0.047483        -2.742038         3.532547
 H        -1.884887        -1.059929         3.007188
 H        -1.435004        -0.828476         0.269937
 H        -1.679357         0.762370         1.281000
 H         0.204483         1.052164        -1.135717
 H         1.637988         1.723447        -0.262047
 H         2.166150         0.393646         2.489445
 H         0.674051         1.369476         2.783453
