19
Iteration:  2683
 O         0.338464         0.185451         4.447567
 C         0.293573        -0.482186         3.227340
 C         0.069624        -1.909157         3.042400
 C        -0.989436        -0.990038         2.478351
 C        -0.987029        -0.420800         1.019352
 C         0.401000         0.191713         0.852366
 C         0.785277         1.214664        -0.100953
 O         1.358613        -0.115689        -0.210601
 C         1.186575         0.275123         2.271344
 H         0.275245        -0.429184         5.171525
 H         0.701038        -2.474997         2.382169
 H        -0.341039        -2.389370         3.887930
 H        -1.874674        -0.970525         3.264972
 H        -1.176027        -1.045439         0.110276
 H        -1.771735         0.467840         1.043944
 H         0.170670         1.451064        -0.985771
 H         1.628174         1.943049         0.046471
 H         2.211396        -0.157207         2.011604
 H         1.418993         1.371026         2.507593
