19
Iteration:  1279
 O         0.221817        -0.073591         4.635077
 C         0.334436        -0.373325         3.211048
 C         0.100197        -1.859935         2.850989
 C        -0.996321        -0.728905         2.576859
 C        -0.863263        -0.406141         1.097778
 C         0.467839         0.224532         0.875984
 C         0.837965         1.091573        -0.230023
 O         1.254191        -0.280669        -0.257831
 C         1.161089         0.489607         2.260478
 H         0.641638        -0.828816         5.098662
 H         0.337861        -2.289332         1.752696
 H        -0.128912        -2.655923         3.602022
 H        -1.914484        -0.568205         3.222298
 H        -0.834341        -1.378939         0.578857
 H        -1.650558         0.213077         0.603022
 H         0.135772         1.368488        -0.951210
 H         1.556875         1.919686         0.061488
 H         2.227902         0.401507         2.406007
 H         1.014794         1.665150         2.592877
