19
Iteration:  4215
 O         0.245646         0.141198         4.539193
 C         0.366104        -0.427592         3.176246
 C         0.415954        -1.905224         2.918139
 C        -0.884223        -1.031810         2.619279
 C        -0.970664        -0.435442         1.148132
 C         0.379194         0.175435         0.953876
 C         0.732657         1.173355        -0.194534
 O         1.249240        -0.142434        -0.313100
 C         1.030326         0.436883         2.195859
 H        -0.645527        -0.126861         4.841651
 H         1.120582        -2.166533         2.095064
 H         0.423470        -2.713499         3.776152
 H        -1.796155        -1.319991         3.161816
 H        -0.956336        -1.390917         0.559241
 H        -1.808466         0.294729         1.078463
 H         0.027625         1.423961        -1.045690
 H         1.470450         1.905491         0.024764
 H         2.123989         0.216989         2.072559
 H         0.800668         1.503361         2.729998
