19
Iteration:  2463charge 0 multiplicity 1
 O         0.388840        -0.062339         4.587675
 C         0.322171        -0.496941         3.219527
 C         0.140550        -1.901365         2.762558
 C        -0.974120        -0.856260         2.501140
 C        -1.081242        -0.260350         1.029210
 C         0.361280         0.344889         0.874763
 C         0.996133         0.997101        -0.329956
 O         1.303517        -0.330835         0.073925
 C         0.955071         0.628391         2.277155
 H         1.121663        -0.608646         4.905620
 H         0.734647        -2.387931         1.919521
 H        -0.062775        -2.611714         3.628137
 H        -1.914946        -1.108715         2.990575
 H        -1.382325        -0.875703         0.184268
 H        -1.701185         0.572923         1.051160
 H         0.406919         1.158075        -1.326709
 H         1.647177         1.890278        -0.244832
 H         2.068296         0.634283         2.211882
 H         0.873036         1.586354         2.812107
