19
Iteration:  2026charge 0 multiplicity 1
 O        -0.011046         0.011048         4.537920
 C         0.378632        -0.434786         3.206591
 C         0.130480        -1.857532         2.952165
 C        -0.895109        -0.825145         2.529729
 C        -0.893223        -0.305469         1.115492
 C         0.557984         0.214552         0.914363
 C         0.728683         1.165568        -0.165985
 O         1.215432        -0.242028        -0.327978
 C         1.360399         0.276221         2.246387
 H         0.748038        -0.007714         5.168222
 H         0.853198        -2.368845         2.227092
 H        -0.030488        -2.561077         3.813443
 H        -1.929354        -0.749509         2.964454
 H        -1.261734        -1.002001         0.296315
 H        -1.727997         0.569534         1.029489
 H        -0.072357         1.351822        -0.755982
 H         1.469087         1.874821         0.146961
 H         2.299177        -0.177517         2.267913
 H         1.467018         1.391170         2.609990
