19
Iteration:   421charge 0 multiplicity 1
 O         0.444459        -0.034681         4.551671
 C         0.314036        -0.505294         3.194740
 C         0.109391        -1.955186         2.784387
 C        -0.971700        -0.848778         2.528841
 C        -0.962336        -0.276777         1.101022
 C         0.392534         0.377710         0.908746
 C         0.873348         0.962250        -0.378201
 O         1.303433        -0.343330         0.031449
 C         1.034494         0.688340         2.287220
 H        -0.091996        -0.472081         5.283584
 H         0.552630        -2.400408         1.947972
 H         0.023715        -2.618395         3.643777
 H        -1.991468        -0.881944         2.939689
 H        -1.099074        -1.103065         0.342779
 H        -1.783946         0.475085         1.126240
 H         0.248993         1.041710        -1.264932
 H         1.537584         1.747170        -0.457339
 H         2.085903         0.762954         2.201531
 H         0.593409         1.614791         2.513643
