19
Iteration:  4567
 O         0.153597        -0.002159         4.581767
 C         0.311314        -0.403315         3.234143
 C         0.428433        -1.896089         2.836134
 C        -0.787906        -1.088559         2.524710
 C        -0.927811        -0.428947         1.187402
 C         0.400910         0.301245         0.867489
 C         0.653304         1.086332        -0.290824
 O         1.215353        -0.206368        -0.165707
 C         1.058064         0.588883         2.252497
 H         0.918753         0.558483         4.839052
 H         1.140848        -2.035657         2.056735
 H         0.089973        -2.514036         3.665041
 H        -1.723424        -1.479036         2.975885
 H        -1.152807        -1.058204         0.334778
 H        -1.732103         0.343390         1.292657
 H        -0.133028         1.223779        -0.966980
 H         1.462168         1.826427        -0.365067
 H         2.133043         0.388272         2.344446
 H         0.957993         1.590972         2.550154
