19
Iteration:  4058charge 0 multiplicity 1
 O         0.240270        -0.104662         4.579373
 C         0.379637        -0.339402         3.162453
 C         0.422838        -1.794550         2.570572
 C        -0.755769        -1.038896         2.540990
 C        -0.995403        -0.279092         1.189251
 C         0.272624         0.398861         0.933386
 C         0.776085         0.844760        -0.315743
 O         1.287768        -0.390978         0.089418
 C         0.843956         0.799969         2.260842
 H         0.937109        -0.614142         4.980767
 H         1.046015        -1.930012         1.791448
 H         0.403094        -2.636224         3.268057
 H        -1.663875        -1.399678         3.123404
 H        -1.505652        -0.809316         0.317970
 H        -1.706597         0.554405         1.305074
 H         0.193814         0.725950        -1.228019
 H         1.497510         1.674984        -0.327498
 H         1.963139         0.756274         2.193691
 H         0.563561         1.930671         2.505071
