19
Iteration:  1205
 O         0.187982        -0.004054         4.472259
 C         0.399207        -0.487402         3.189704
 C         0.129130        -1.962702         2.750304
 C        -0.905179        -0.838942         2.524731
 C        -1.011433        -0.150825         1.147861
 C         0.430781         0.284436         0.955087
 C         0.869048         1.010252        -0.251285
 O         1.255703        -0.353219        -0.026842
 C         1.105021         0.511540         2.244132
 H         1.013766        -0.128271         5.011890
 H         0.766506        -2.414892         1.842086
 H         0.001764        -2.614322         3.641186
 H        -1.734486        -0.827616         3.297136
 H        -1.242074        -0.766805         0.325835
 H        -1.845186         0.619298         1.139473
 H         0.392759         1.168712        -1.251138
 H         1.726643         1.649369         0.094539
 H         2.176064         0.550477         2.170375
 H         0.946131         1.505217         2.597251
