19
Iteration:  4509charge 0 multiplicity 1
 O         0.500010        -0.112506         4.623144
 C         0.254152        -0.323567         3.133022
 C         0.330348        -1.814801         2.792158
 C        -0.901556        -1.080515         2.462314
 C        -0.936753        -0.370077         1.098016
 C         0.370678         0.286898         0.932477
 C         0.669905         1.016712        -0.282207
 O         1.283618        -0.325559        -0.020166
 C         0.919603         0.754574         2.257288
 H        -0.367544         0.175315         4.942006
 H         0.941767        -2.263024         2.030573
 H         0.547279        -2.455037         3.603436
 H        -1.820152        -1.157043         3.050147
 H        -0.907701        -0.933003         0.078905
 H        -1.738974         0.296729         0.966093
 H        -0.086056         0.988089        -1.156896
 H         1.421568         1.845697        -0.187154
 H         1.930273         0.558922         2.498461
 H         0.581736         1.741209         2.537578
