19
Iteration:   885charge 0 multiplicity 1
 O         0.374934        -0.106695         4.633636
 C         0.247669        -0.401727         3.232911
 C         0.006726        -1.945438         2.834258
 C        -0.990732        -0.770163         2.586986
 C        -0.895178        -0.291512         1.073453
 C         0.497515         0.298036         0.847669
 C         0.820512         1.028266        -0.396518
 O         1.394273        -0.275764        -0.119849
 C         1.012065         0.508320         2.283002
 H         1.282702        -0.081980         4.900567
 H         0.538280        -2.513929         2.088143
 H        -0.226497        -2.587830         3.642455
 H        -2.010439        -0.882430         3.115632
 H        -1.287876        -0.923116         0.348357
 H        -1.592746         0.542086         1.214119
 H        -0.000504         0.951023        -1.104161
 H         1.396420         1.890787        -0.263449
 H         2.058966         0.468247         2.452841
 H         0.665734         1.569959         2.565855
