19
Iteration:  2420charge 0 multiplicity 1
 O         0.211278        -0.061544         4.620586
 C         0.287801        -0.337834         3.218343
 C         0.144997        -1.835395         2.820603
 C        -0.980091        -0.859714         2.516529
 C        -0.900651        -0.358359         1.074501
 C         0.508545         0.242380         0.902167
 C         0.879242         1.131413        -0.233885
 O         1.215617        -0.328880        -0.250270
 C         1.129508         0.461900         2.357870
 H         1.051282        -0.356893         5.048541
 H         0.546887        -2.141998         1.804920
 H        -0.088788        -2.603037         3.588445
 H        -1.841238        -0.863714         3.211418
 H        -1.310524        -1.122380         0.419797
 H        -1.617051         0.426164         1.026311
 H         0.093696         1.419689        -1.061895
 H         1.792586         1.792032        -0.175140
 H         2.185640         0.280800         2.572445
 H         1.027040         1.506850         2.486779
