19
Iteration:   787
 O         0.142520        -0.182320         4.627101
 C         0.413378        -0.408929         3.137772
 C         0.293985        -1.831182         2.696314
 C        -0.883728        -0.879004         2.446202
 C        -1.036248        -0.052789         1.168267
 C         0.410713         0.341448         0.908610
 C         0.928420         0.888973        -0.366079
 O         1.204661        -0.465959         0.067155
 C         1.039815         0.655362         2.258615
 H         0.977667        -0.372613         5.029203
 H         0.872115        -2.164273         1.901568
 H         0.303755        -2.490078         3.571870
 H        -1.662509        -1.230630         3.141692
 H        -1.518655        -0.469404         0.324972
 H        -1.563691         0.959885         1.432363
 H         0.234787         0.913377        -1.191121
 H         1.693697         1.632283        -0.431945
 H         2.162197         0.821494         2.258830
 H         0.449815         1.619243         2.585180
