19
Iteration:  4786charge 0 multiplicity 1
 O         0.228541        -0.112921         4.564409
 C         0.360680        -0.307153         3.213823
 C         0.642077        -1.817914         2.731152
 C        -0.781082        -1.037694         2.518175
 C        -1.012972        -0.442827         1.061717
 C         0.283564         0.297516         0.897027
 C         0.641494         0.929572        -0.342797
 O         1.295398        -0.257808         0.055617
 C         0.819776         0.805492         2.316472
 H         0.897961        -0.604388         5.101574
 H         1.230122        -1.941122         1.841928
 H         0.766742        -2.570462         3.577456
 H        -1.629372        -1.415159         3.092330
 H        -1.337546        -0.923120         0.183895
 H        -1.705397         0.405687         1.181397
 H        -0.040060         0.647400        -1.194806
 H         1.307901         1.764819        -0.428936
 H         1.864880         1.107939         1.995871
 H         0.323914         1.760616         2.712019
