19
Iteration:   628charge 0 multiplicity 1
 O         0.256569         0.019158         4.604812
 C         0.321373        -0.429824         3.280443
 C         0.135791        -1.932464         2.838190
 C        -0.947439        -0.885731         2.541666
 C        -0.976801        -0.213540         1.120687
 C         0.483833         0.340427         0.913001
 C         0.823692         1.041881        -0.240397
 O         1.322626        -0.315551        -0.264532
 C         1.155220         0.383240         2.256252
 H        -0.640569         0.090822         4.889530
 H         0.865261        -2.403732         2.178996
 H        -0.058845        -2.656752         3.693606
 H        -1.921837        -0.869490         3.088304
 H        -1.395220        -0.854123         0.248773
 H        -1.468314         0.728430         1.154948
 H        -0.095805         1.292965        -0.902396
 H         1.657715         1.698092        -0.422721
 H         2.196899         0.009339         2.174289
 H         1.160716         1.482419         2.655007
