19
Iteration:   379charge 0 multiplicity 1
 O         0.408539        -0.017512         4.598991
 C         0.283027        -0.378077         3.271699
 C         0.106114        -1.795108         2.858013
 C        -1.073228        -0.873853         2.512440
 C        -1.005476        -0.360307         1.041686
 C         0.461679         0.219841         0.849261
 C         0.788617         1.033149        -0.272288
 O         1.413774        -0.273878        -0.104746
 C         1.054765         0.529098         2.263655
 H         0.580217        -0.822598         5.154669
 H         0.604864        -2.177952         2.016018
 H        -0.137369        -2.492004         3.667206
 H        -1.985520        -1.087498         3.069803
 H        -1.200334        -1.073110         0.247301
 H        -1.649064         0.538425         0.899531
 H         0.063539         1.084139        -1.260450
 H         1.544659         1.826578        -0.138017
 H         2.094318         0.236611         2.207632
 H         1.055726         1.562840         2.659665
