19
Iteration:  2792
 O         0.327202        -0.002364         4.574420
 C         0.291947        -0.450030         3.185276
 C        -0.015040        -1.875499         3.043613
 C        -1.005601        -0.843202         2.561449
 C        -0.926641        -0.564612         1.096791
 C         0.430248         0.270021         0.839028
 C         0.770797         1.276520        -0.273578
 O         1.446906        -0.066929        -0.205194
 C         1.159304         0.234794         2.206878
 H         0.504864         0.978298         4.688747
 H         0.423507        -2.355763         2.220284
 H        -0.280757        -2.588954         3.819894
 H        -1.979292        -0.882190         3.215124
 H        -0.928904        -1.504908         0.495719
 H        -1.959497        -0.079441         0.760510
 H        -0.030093         1.322328        -0.952765
 H         1.274818         2.136590        -0.026947
 H         2.136636        -0.338671         2.130361
 H         1.508263         1.276306         2.548346
