19
Iteration:  3014
 O         0.367004        -0.082097         4.587775
 C         0.337759        -0.408553         3.197000
 C         0.157593        -1.936512         2.774118
 C        -0.929751        -0.924292         2.462500
 C        -1.042816        -0.134933         1.104265
 C         0.399832         0.440082         0.867786
 C         0.908427         0.924314        -0.375817
 O         1.343563        -0.360432         0.026655
 C         0.951760         0.621742         2.298032
 H         0.562537        -0.914465         5.081662
 H         0.873263        -2.434102         2.043979
 H        -0.034510        -2.686444         3.613896
 H        -1.870092        -1.134629         3.076968
 H        -1.414858        -0.896686         0.306246
 H        -1.714185         0.745042         1.377056
 H         0.295937         0.773003        -1.230387
 H         1.519311         1.850252        -0.462439
 H         2.050711         0.624120         2.467706
 H         0.483079         1.600570         2.683413
