19
Iteration:  4868
 O         0.209597        -0.076225         4.542111
 C         0.295432        -0.332789         3.157474
 C         0.604428        -1.829522         2.865594
 C        -0.773397        -1.147197         2.554107
 C        -0.913433        -0.543235         1.094880
 C         0.326890         0.239102         0.901531
 C         0.580548         1.102112        -0.279845
 O         1.302365        -0.193842        -0.067652
 C         0.834512         0.738331         2.242544
 H         1.132021         0.243421         4.596002
 H         1.031103        -2.266534         1.970321
 H         0.705395        -2.338282         3.819644
 H        -1.673588        -1.143450         3.237766
 H        -1.093996        -1.324085         0.270159
 H        -1.684572         0.249378         1.052798
 H        -0.291887         1.190514        -0.898727
 H         1.354907         1.935841        -0.116045
 H         1.912620         0.797846         2.165912
 H         0.460071         1.675185         2.598755
