19
Iteration:  1681charge 0 multiplicity 1
 O         0.112655         0.143928         4.565445
 C         0.354704        -0.452677         3.284469
 C         0.210332        -1.887493         2.886949
 C        -0.866321        -0.842532         2.459115
 C        -0.884888        -0.311300         1.056902
 C         0.517536         0.128943         0.893491
 C         0.749119         1.205286        -0.130376
 O         1.179411        -0.217492        -0.304185
 C         1.232254         0.237243         2.312247
 H         0.055246        -0.525069         5.305667
 H         0.675879        -2.523165         2.144274
 H        -0.393836        -2.534639         3.557736
 H        -1.819330        -0.852148         2.967793
 H        -1.246965        -0.945669         0.223211
 H        -1.418467         0.637878         1.243559
 H         0.029834         1.402618        -0.923611
 H         1.654745         1.782171         0.042150
 H         2.388091        -0.050232         2.344086
 H         1.154337         1.288387         2.476782
