19
Iteration:  1656charge 0 multiplicity 1
 O         0.218089         0.079300         4.516286
 C         0.235621        -0.430108         3.236354
 C         0.117618        -1.980133         3.011426
 C        -1.008268        -0.945731         2.511888
 C        -0.915907        -0.312805         1.069093
 C         0.471282         0.406184         0.954708
 C         0.788585         1.138784        -0.297568
 O         1.305678        -0.174561        -0.243590
 C         1.270681         0.296482         2.295341
 H         0.696007        -0.501589         5.172999
 H         0.566728        -2.580427         2.254786
 H        -0.254430        -2.586784         3.848085
 H        -1.990171        -1.091410         2.818608
 H        -0.997652        -1.046910         0.276696
 H        -1.677297         0.602473         1.063480
 H        -0.092529         1.222692        -0.882295
 H         1.596050         1.898152        -0.370355
 H         2.206062        -0.283139         2.085334
 H         1.556729         1.257060         2.712962
