19
Iteration:  3696charge 0 multiplicity 1
 O         0.341378        -0.166928         4.542798
 C         0.361702        -0.319950         3.220985
 C         0.321875        -1.770044         2.616459
 C        -0.909483        -0.937595         2.603044
 C        -1.090981        -0.235473         1.108353
 C         0.392307         0.274448         0.915858
 C         0.877068         0.895749        -0.327264
 O         1.318482        -0.428866         0.072892
 C         0.818975         0.805244         2.291859
 H         1.044876        -0.637033         4.975685
 H         0.763899        -1.987495         1.636425
 H         0.543895        -2.643307         3.313805
 H        -1.817177        -1.365459         3.109393
 H        -1.425104        -0.965362         0.270762
 H        -1.615019         0.725053         1.098704
 H         0.205196         0.971868        -1.250768
 H         1.847063         1.517380        -0.196713
 H         1.897927         1.055134         2.410499
 H         0.245680         1.733301         2.361887
