19
Iteration:  1938charge 0 multiplicity 1
 O         0.396264        -0.006446         4.556527
 C         0.327546        -0.458266         3.182703
 C         0.014866        -1.874426         2.794241
 C        -1.064891        -0.837632         2.542543
 C        -1.007096        -0.389776         1.097807
 C         0.457333         0.242267         0.893317
 C         0.853054         1.036084        -0.260217
 O         1.468035        -0.184471        -0.108265
 C         0.986528         0.518063         2.264283
 H         0.809552        -0.704005         5.117023
 H         0.581539        -2.489958         1.978462
 H        -0.197633        -2.548720         3.654992
 H        -1.967542        -0.742372         3.215451
 H        -1.060634        -1.274106         0.437185
 H        -1.687248         0.565749         1.068576
 H         0.086324         1.077316        -0.966643
 H         1.552137         1.862108        -0.073517
 H         1.995542         0.350229         2.268661
 H         0.766407         1.553884         2.669711
