19
Iteration:  1545
 O         0.129462        -0.030392         4.505306
 C         0.369010        -0.451848         3.131549
 C         0.330700        -1.946354         2.730698
 C        -0.856252        -0.956827         2.450700
 C        -1.015190        -0.066623         1.180795
 C         0.412078         0.443228         0.968370
 C         0.880441         0.947602        -0.363860
 O         1.193040        -0.435965         0.082377
 C         1.143283         0.605642         2.271267
 H         0.248633        -0.804176         5.034554
 H         0.899249        -2.339793         1.900470
 H        -0.147337        -2.650192         3.374603
 H        -1.670236        -1.040577         3.255262
 H        -1.363416        -0.608812         0.306859
 H        -1.754816         0.816799         1.363900
 H         0.108210         1.037966        -1.099398
 H         1.653536         1.630943        -0.301465
 H         2.222541         0.400165         2.149150
 H         0.979945         1.546311         2.902604
