19
Iteration:  4474charge 0 multiplicity 1
 O         0.479536        -0.011808         4.551894
 C         0.292127        -0.375843         3.181658
 C         0.442375        -1.933439         2.674795
 C        -0.886359        -0.910569         2.553917
 C        -1.121601        -0.320907         1.134481
 C         0.300527         0.340027         0.881440
 C         0.805642         0.952603        -0.371040
 O         1.363021        -0.311859         0.096587
 C         0.768646         0.650816         2.267090
 H         0.274741        -0.816198         5.051129
 H         1.105840        -2.007383         1.777470
 H         0.222080        -2.605820         3.471542
 H        -1.618844        -1.344663         3.269874
 H        -1.063205        -1.152974         0.351096
 H        -1.971981         0.313459         1.080783
 H         0.266644         1.172386        -1.422597
 H         1.480477         1.796728        -0.185780
 H         1.841955         0.815568         2.457291
 H         0.280512         1.603692         2.632831
