19
Iteration:  1051
 O         0.322648        -0.224833         4.599789
 C         0.271673        -0.389732         3.167089
 C         0.143151        -1.774982         2.764811
 C        -1.043556        -0.793042         2.541085
 C        -0.952848        -0.228790         1.126204
 C         0.485012         0.286536         0.886650
 C         0.904714         0.977331        -0.266974
 O         1.282212        -0.435810        -0.129243
 C         1.011745         0.693113         2.348567
 H         1.253288        -0.083794         4.768466
 H         0.581608        -2.256019         1.841274
 H         0.054655        -2.460617         3.728879
 H        -1.970921        -1.114866         2.910736
 H        -1.130166        -0.944279         0.368489
 H        -1.665251         0.641775         1.013606
 H         0.216065         1.246546        -1.085565
 H         1.898204         1.492041        -0.226007
 H         2.076616         0.532762         2.448497
 H         0.673097         1.688096         2.619166
