19
Iteration:  2416
 O         0.197365        -0.043770         4.634562
 C         0.281851        -0.378965         3.244737
 C         0.126508        -1.823157         2.824835
 C        -0.939075        -0.871098         2.484455
 C        -0.918816        -0.342244         1.087620
 C         0.515811         0.247554         0.902130
 C         0.839348         1.122916        -0.250141
 O         1.227176        -0.320245        -0.265047
 C         1.148940         0.439418         2.374240
 H         1.053100        -0.308231         4.983642
 H         0.601370        -2.191274         1.872330
 H        -0.098418        -2.606434         3.538838
 H        -1.829601        -0.791321         3.179047
 H        -1.238565        -1.113336         0.373169
 H        -1.669351         0.469307         1.024080
 H         0.184517         1.439143        -0.977003
 H         1.724844         1.756916        -0.309650
 H         2.236101         0.290403         2.606024
 H         1.089050         1.568557         2.503876
