19
Iteration:   668
 O         0.242458         0.060436         4.620798
 C         0.298268        -0.406145         3.206945
 C         0.207593        -1.833718         2.818418
 C        -0.937761        -0.892692         2.452499
 C        -0.937528        -0.215307         1.075615
 C         0.520173         0.267676         0.960399
 C         0.903164         1.066015        -0.207591
 O         1.121951        -0.385154        -0.205711
 C         1.167637         0.415470         2.311780
 H        -0.477701        -0.565559         4.947433
 H         0.910236        -2.135704         2.065348
 H        -0.106811        -2.532553         3.544816
 H        -1.758529        -0.939666         3.142656
 H        -1.008946        -0.931890         0.315592
 H        -1.745321         0.522923         0.855401
 H         0.076661         1.345059        -0.796419
 H         1.675147         1.780809        -0.241565
 H         2.143831        -0.060329         2.079448
 H         1.309242         1.324906         2.751811
