19
Iteration:  3681
 O         0.336945        -0.232735         4.673543
 C         0.250483        -0.348852         3.168913
 C         0.326705        -1.738735         2.648048
 C        -0.959458        -0.863015         2.534024
 C        -0.969931        -0.289289         1.201178
 C         0.416272         0.333325         0.885645
 C         0.900613         0.926909        -0.408286
 O         1.301866        -0.419715         0.016390
 C         0.842536         0.729654         2.286639
 H         1.299220        -0.107328         4.817266
 H         0.945813        -2.018099         1.728204
 H         0.255638        -2.486951         3.412179
 H        -1.821502        -0.989884         3.140966
 H        -1.184467        -1.133144         0.478099
 H        -1.908016         0.343156         1.111349
 H         0.273330         0.924411        -1.250963
 H         1.528377         1.765423        -0.487988
 H         1.951366         0.891615         2.376168
 H         0.259504         1.665928         2.574008
