19
Iteration:  2678charge 0 multiplicity 1
 O         0.349665         0.184950         4.465202
 C         0.276830        -0.496298         3.258266
 C         0.040153        -1.921028         3.022484
 C        -0.997381        -0.978735         2.490653
 C        -0.956663        -0.438167         1.044818
 C         0.449537         0.178473         0.868709
 C         0.817226         1.223391        -0.149144
 O         1.331821        -0.105088        -0.210977
 C         1.155732         0.314038         2.229981
 H         0.371454        -0.499008         5.197517
 H         0.736811        -2.416818         2.309223
 H        -0.371419        -2.499072         3.901536
 H        -1.855296        -0.898231         3.037649
 H        -1.221034        -1.070586         0.195758
 H        -1.588739         0.420370         0.978004
 H         0.008854         1.353509        -0.879468
 H         1.595527         1.966809         0.000790
 H         2.161907        -0.088191         2.152272
 H         1.343408         1.309085         2.564624
