19
Iteration:  4497
 O         0.544922        -0.049117         4.599833
 C         0.347959        -0.353437         3.252638
 C         0.315581        -1.799721         2.734901
 C        -0.958774        -1.057823         2.444321
 C        -0.972086        -0.438306         1.051500
 C         0.343596         0.343427         0.932687
 C         0.747624         0.947056        -0.327375
 O         1.302926        -0.281404         0.027098
 C         0.862681         0.681031         2.302422
 H        -0.288874        -0.160271         5.088322
 H         0.855583        -1.897799         1.786405
 H         0.256003        -2.523174         3.504230
 H        -1.911036        -1.328974         2.946830
 H        -1.268188        -1.118804         0.164767
 H        -1.686853         0.324426         1.210351
 H         0.006148         1.170805        -1.215284
 H         1.447193         1.799945        -0.244096
 H         1.910712         0.935855         2.174083
 H         0.398009         1.640376         2.590846
