19
Iteration:  3106charge 0 multiplicity 1
 O         0.291257         0.043950         4.417571
 C         0.374388        -0.474649         3.154162
 C         0.147848        -1.930172         3.042782
 C        -0.987281        -0.923622         2.505153
 C        -1.004752        -0.329115         1.102649
 C         0.431520         0.267698         0.905833
 C         0.826546         1.161505        -0.193014
 O         1.325724        -0.198781        -0.159354
 C         1.141495         0.408771         2.218141
 H        -0.193224        -0.556181         4.988783
 H         0.868031        -2.498869         2.577254
 H        -0.216085        -2.414080         3.930402
 H        -1.839470        -1.168840         3.126596
 H        -1.233006        -0.907640         0.220425
 H        -1.646432         0.585266         1.205004
 H         0.033779         1.265739        -0.984193
 H         1.431235         2.045006        -0.126703
 H         2.177654         0.037418         2.066765
 H         1.103050         1.355580         2.748428
