19
Iteration:   875charge 0 multiplicity 1
 O         0.298171        -0.153254         4.583634
 C         0.329855        -0.416864         3.221328
 C         0.046477        -1.858751         2.915117
 C        -0.982954        -0.862802         2.562870
 C        -0.992126        -0.262760         1.138385
 C         0.490738         0.285475         0.871487
 C         0.861868         1.002828        -0.348279
 O         1.372182        -0.310217        -0.184900
 C         1.019321         0.617329         2.280598
 H         1.183567        -0.328270         4.866489
 H         0.523482        -2.146260         1.966324
 H        -0.081758        -2.560440         3.696619
 H        -1.960771        -0.853700         3.171340
 H        -1.288479        -0.900643         0.364353
 H        -1.662981         0.645378         1.032098
 H         0.262927         1.094772        -1.249389
 H         1.568429         1.767167        -0.346487
 H         2.138007         0.474116         2.300144
 H         0.821807         1.589160         2.843279
