19
Iteration:   579
 O         0.456184        -0.171399         4.563090
 C         0.252938        -0.363703         3.207322
 C         0.107057        -1.835561         2.879795
 C        -0.985215        -0.848292         2.465411
 C        -1.009669        -0.302062         1.066341
 C         0.444876         0.306554         0.875440
 C         0.900451         0.987694        -0.234568
 O         1.290074        -0.339009        -0.079595
 C         1.020503         0.574508         2.313649
 H         0.656353         0.783520         4.807523
 H         0.507688        -2.252307         1.952625
 H        -0.192316        -2.593264         3.650736
 H        -2.014428        -0.814208         2.824551
 H        -1.013335        -1.116920         0.372057
 H        -1.888684         0.316450         0.648443
 H         0.273834         1.221798        -1.059362
 H         1.513292         1.931655        -0.086493
 H         2.070238         0.329458         2.292815
 H         0.890015         1.545178         2.708104
