19
Iteration:  2879charge 0 multiplicity 1
 O         0.097446        -0.012119         4.668633
 C         0.371625        -0.384919         3.201354
 C         0.299365        -1.828100         2.790884
 C        -0.869921        -0.973589         2.482585
 C        -1.025672        -0.251489         1.128273
 C         0.390795         0.345868         0.891280
 C         0.843506         0.975799        -0.342824
 O         1.245474        -0.290636        -0.135541
 C         1.166897         0.499453         2.263361
 H         0.456571        -0.735362         5.229908
 H         1.062104        -2.140301         2.125821
 H         0.192529        -2.483821         3.611407
 H        -1.788818        -1.106668         3.083345
 H        -1.236782        -0.833899         0.252119
 H        -1.798320         0.557233         1.276002
 H         0.144302         1.207107        -1.159760
 H         1.539930         1.719790        -0.049922
 H         2.143135         0.028312         2.086221
 H         1.179917         1.464782         2.757023
