19
Iteration:  2826
 O         0.411278         0.019091         4.550733
 C         0.272473        -0.404366         3.228884
 C         0.004422        -1.883979         2.977550
 C        -1.013629        -0.912305         2.434583
 C        -0.901684        -0.476587         0.980999
 C         0.505168         0.214296         0.901342
 C         0.723173         1.201418        -0.132507
 O         1.361557        -0.207969        -0.197391
 C         1.105409         0.424065         2.302528
 H         1.291321         0.463178         4.576770
 H         0.562415        -2.512469         2.319563
 H        -0.522625        -2.377921         3.765101
 H        -2.069266        -0.998750         2.785092
 H        -0.822471        -1.345920         0.252631
 H        -1.837034         0.206278         0.797887
 H        -0.160087         1.307599        -0.644672
 H         1.285879         2.055544        -0.135444
 H         2.221017         0.242171         2.238526
 H         0.855977         1.457092         2.791728
