19
Iteration:  4211charge 0 multiplicity 1
 O         0.245863         0.144833         4.581713
 C         0.381954        -0.418560         3.196267
 C         0.423230        -1.932601         2.921505
 C        -0.890952        -1.038726         2.604713
 C        -0.976100        -0.460330         1.155678
 C         0.386427         0.199751         0.980051
 C         0.748896         1.159023        -0.227047
 O         1.243403        -0.131797        -0.313611
 C         1.039843         0.454988         2.184055
 H        -0.645200        -0.130131         4.888153
 H         0.985728        -2.158212         2.025356
 H         0.285782        -2.637405         3.609419
 H        -1.831563        -1.292801         3.032590
 H        -1.092011        -1.410878         0.458022
 H        -1.796078         0.205145         1.076116
 H         0.019661         1.353312        -0.970648
 H         1.514171         2.003888        -0.070462
 H         2.098454         0.293985         2.060362
 H         0.786841         1.436159         2.539429
