19
Iteration:   601
 O         0.367405        -0.097471         4.515880
 C         0.388055        -0.490227         3.175127
 C         0.034545        -1.908408         2.902533
 C        -0.983411        -0.913091         2.579555
 C        -0.960232        -0.290709         1.119325
 C         0.429096         0.333945         0.847150
 C         0.873457         1.079075        -0.309146
 O         1.280395        -0.263010        -0.038469
 C         1.098489         0.472840         2.244538
 H        -0.274976         0.598771         4.650201
 H         0.707152        -2.551098         2.310194
 H        -0.269835        -2.266086         3.887031
 H        -1.881239        -0.708191         3.142989
 H        -1.310690        -0.887296         0.322435
 H        -1.565419         0.649585         0.865073
 H         0.441859         1.245892        -1.242570
 H         1.726229         1.836300        -0.274378
 H         2.175368         0.397173         2.191162
 H         0.840883         1.465259         2.525955
