19
Iteration:  2556
 O         0.220086        -0.090527         4.544190
 C         0.315769        -0.369900         3.143449
 C         0.374140        -1.822934         2.721665
 C        -0.869156        -0.985863         2.392774
 C        -1.027786        -0.113224         1.143877
 C         0.410406         0.415126         0.915435
 C         0.978543         0.917846        -0.244885
 O         1.098039        -0.480848         0.015238
 C         0.992781         0.600943         2.350644
 H         1.033309        -0.346116         5.034372
 H         1.101590        -2.124667         1.921420
 H         0.175726        -2.586190         3.474938
 H        -1.835375        -1.274782         3.030260
 H        -1.455959        -0.630480         0.246159
 H        -1.738711         0.748664         1.383002
 H         0.427049         1.170979        -1.128053
 H         1.925057         1.581683        -0.225806
 H         2.074395         0.719625         2.386535
 H         0.603671         1.596445         2.575402
