19
Iteration:  2748
 O         0.232085         0.128777         4.559961
 C         0.294476        -0.454757         3.310630
 C         0.044284        -1.945343         3.040537
 C        -0.876413        -0.871906         2.490468
 C        -0.771418        -0.423145         1.010675
 C         0.642624         0.145909         0.964420
 C         0.699731         1.266430        -0.115468
 O         1.131021        -0.132950        -0.450665
 C         1.260787         0.220146         2.294336
 H        -0.751914         0.280306         4.679836
 H         0.767937        -2.515859         2.491787
 H        -0.517780        -2.495882         3.780788
 H        -1.966296        -0.827859         2.925927
 H        -0.885053        -1.260390         0.278173
 H        -1.585137         0.390756         0.675809
 H        -0.181235         1.673108        -0.567391
 H         1.533436         1.834665        -0.232514
 H         2.334791        -0.122834         2.341315
 H         1.425517         1.292526         2.646003
