19
Iteration:   750charge 0 multiplicity 1
 O         0.368411        -0.239316         4.639280
 C         0.273155        -0.324535         3.217563
 C         0.117329        -1.715260         2.652058
 C        -1.049420        -0.797878         2.569110
 C        -0.972301        -0.253925         1.047188
 C         0.423919         0.333218         0.936805
 C         0.893788         0.940877        -0.382608
 O         1.287155        -0.395544         0.048430
 C         1.053716         0.611735         2.328629
 H         1.294594        -0.378346         4.875176
 H         0.512810        -2.121544         1.649059
 H         0.235598        -2.448855         3.435344
 H        -2.033918        -0.901389         2.999523
 H        -0.941016        -1.197083         0.394726
 H        -1.721460         0.387529         0.694018
 H         0.161600         0.823620        -1.198871
 H         1.857528         1.548002        -0.382553
 H         2.092448         0.732342         2.198647
 H         0.673934         1.604533         2.642926
