19
Iteration:  4922charge 0 multiplicity 1
 O         0.274173        -0.000371         4.611252
 C         0.351382        -0.383029         3.249614
 C         0.551608        -1.765704         2.937354
 C        -0.764864        -1.229715         2.447312
 C        -0.900485        -0.522194         1.111698
 C         0.327480         0.299314         0.927296
 C         0.486598         1.093319        -0.353453
 O         1.263827        -0.154235        -0.115448
 C         0.993180         0.654453         2.231198
 H        -0.696450         0.102041         4.672108
 H         1.290812        -1.957160         2.172707
 H         0.672054        -2.499833         3.760203
 H        -1.737716        -1.696272         2.784979
 H        -0.853621        -1.297037         0.357862
 H        -1.780286         0.081214         0.973489
 H        -0.347485         1.100458        -1.066653
 H         1.031131         2.108852        -0.369868
 H         2.096788         0.596971         2.246770
 H         0.692046         1.605419         2.650595
