19
Iteration:  3528
 O         0.279857         0.011313         4.538857
 C         0.332268        -0.475852         3.249797
 C         0.022800        -1.872604         3.054645
 C        -1.024387        -0.835950         2.555040
 C        -0.949904        -0.450801         1.109194
 C         0.479807         0.112714         0.863736
 C         0.723532         1.165215        -0.217611
 O         1.466781        -0.061375        -0.304541
 C         1.170999         0.317370         2.231639
 H         0.817349         0.782678         4.624934
 H         0.619715        -2.325801         2.320241
 H        -0.265697        -2.610654         3.840999
 H        -2.022751        -0.865758         3.041002
 H        -1.185573        -1.314901         0.431245
 H        -1.688331         0.363775         0.882469
 H        -0.147437         1.004686        -0.903647
 H         1.176316         2.128569        -0.199231
 H         2.244644         0.223788         2.117086
 H         0.960325         1.319387         2.657518
