19
Iteration:  1412
 O         0.436486        -0.124531         4.615295
 C         0.196625        -0.369463         3.258372
 C         0.097573        -1.768704         2.871627
 C        -1.070884        -0.888184         2.484564
 C        -0.934614        -0.283971         1.085128
 C         0.458376         0.333300         0.913899
 C         0.848571         0.989617        -0.348342
 O         1.415828        -0.270758        -0.119736
 C         0.993084         0.521892         2.284681
 H         0.538403        -0.958804         5.079912
 H         0.611826        -2.355309         2.070537
 H        -0.306601        -2.541052         3.576883
 H        -2.019756        -1.041672         2.964119
 H        -1.204839        -0.774229         0.196013
 H        -1.653717         0.600022         1.051178
 H         0.206525         0.927986        -1.218883
 H         1.604251         1.681983        -0.410375
 H         1.975751         0.160215         2.223676
 H         1.061945         1.641989         2.666034
