19
Iteration:   148charge 0 multiplicity 1
 O         0.112486        -0.157020         4.693430
 C         0.320080        -0.333541         3.260661
 C         0.370975        -1.859061         2.877704
 C        -0.885959        -0.860139         2.457345
 C        -1.031653        -0.154069         1.125783
 C         0.456267         0.415739         0.858537
 C         1.041042         0.944254        -0.338162
 O         1.081292        -0.460334        -0.182733
 C         1.069488         0.529410         2.261096
 H         0.994865         0.069198         5.113715
 H         0.847260        -2.207220         1.975404
 H         0.017581        -2.581310         3.599786
 H        -1.732098        -1.117062         3.035035
 H        -1.306641        -0.718288         0.256767
 H        -1.855224         0.637057         1.161946
 H         0.373089         1.418895        -1.118036
 H         1.954771         1.634428        -0.309407
 H         2.178616         0.308955         2.238059
 H         0.839702         1.656564         2.565156
