19
Iteration:  1560
 O         0.205676        -0.087556         4.569299
 C         0.380433        -0.458617         3.254736
 C         0.200902        -1.889077         2.821978
 C        -0.862611        -0.845484         2.398059
 C        -1.069329        -0.188497         1.070576
 C         0.355300         0.425810         0.906561
 C         0.890166         0.953114        -0.326965
 O         1.224704        -0.323513         0.017727
 C         1.130998         0.527448         2.302421
 H         0.667897        -0.708991         5.172124
 H         0.992365        -2.168386         2.115193
 H         0.068147        -2.657005         3.591416
 H        -1.806730        -1.063450         2.812225
 H        -1.386875        -0.780074         0.189880
 H        -1.712274         0.571872         1.358932
 H         0.289204         1.012327        -1.246625
 H         1.796026         1.676529        -0.452477
 H         2.267194         0.296872         2.031751
 H         1.127495         1.528580         2.635237
