19
Iteration:  1772charge 0 multiplicity 1
 O         0.370899        -0.119079         4.524951
 C         0.210067        -0.422182         3.201490
 C         0.064998        -1.884564         2.762095
 C        -1.046958        -0.839606         2.572458
 C        -0.938828        -0.298161         1.153860
 C         0.528691         0.237457         0.927696
 C         0.781231         1.058545        -0.356942
 O         1.444085        -0.276832        -0.043382
 C         1.039414         0.638752         2.290112
 H         0.648622        -0.860523         5.044830
 H         0.583025        -2.337523         1.934469
 H        -0.083259        -2.626129         3.522594
 H        -1.988742        -0.728770         3.226054
 H        -1.142475        -1.151771         0.433225
 H        -1.530774         0.630849         0.912884
 H         0.089518         0.849052        -1.152788
 H         1.525055         1.778009        -0.462839
 H         2.056091         0.601811         2.489748
 H         0.654854         1.723253         2.462937
