19
Iteration:  4443
 O         0.292907        -0.184054         4.553556
 C         0.404948        -0.273329         3.149249
 C         0.417749        -1.765573         2.672908
 C        -0.875130        -1.059673         2.441181
 C        -1.076839        -0.297795         1.177651
 C         0.398565         0.332349         0.930578
 C         0.767505         0.941246        -0.347702
 O         1.230982        -0.418235         0.095078
 C         0.897897         0.819360         2.320940
 H         1.235264        -0.080792         4.829188
 H         1.187824        -2.206955         2.009675
 H         0.247444        -2.331990         3.539269
 H        -1.694496        -1.434642         3.090021
 H        -1.303489        -0.915296         0.219095
 H        -1.886991         0.402760         1.236839
 H         0.044948         0.985801        -1.264301
 H         1.598350         1.640372        -0.233996
 H         1.960384         0.842556         2.238740
 H         0.515254         1.793522         2.548992
