19
Iteration:   679
 O         0.242803         0.043307         4.551218
 C         0.358286        -0.465667         3.238893
 C         0.151178        -1.889568         2.853720
 C        -0.936130        -0.855580         2.494747
 C        -0.946700        -0.227711         1.146782
 C         0.417792         0.340364         0.920360
 C         0.924136         1.022884        -0.262167
 O         1.200368        -0.327914        -0.173694
 C         1.153654         0.435467         2.259889
 H        -0.272036        -0.537282         5.152454
 H         0.647302        -2.361195         2.036646
 H        -0.045701        -2.615828         3.614346
 H        -1.912083        -0.995378         2.938492
 H        -1.045402        -0.893482         0.337366
 H        -1.800561         0.502126         1.118010
 H         0.331723         1.344209        -1.073843
 H         1.764312         1.605981         0.026963
 H         2.245219         0.162658         2.275283
 H         1.038450         1.449383         2.428000
