19
Iteration:   762
 O         0.262636        -0.294649         4.624258
 C         0.335876        -0.381400         3.153420
 C         0.157726        -1.766408         2.676584
 C        -0.994544        -0.710666         2.551233
 C        -0.964392        -0.275100         1.157560
 C         0.417209         0.429839         0.910604
 C         0.930541         0.852603        -0.373137
 O         1.264134        -0.449710         0.015852
 C         1.016908         0.730143         2.288652
 H         1.184369        -0.258096         4.900393
 H         0.779936        -1.892223         1.766573
 H         0.143322        -2.532672         3.414844
 H        -1.743757        -0.989637         3.227311
 H        -1.128852        -1.067310         0.374863
 H        -1.733922         0.467393         1.020419
 H         0.302534         1.009419        -1.248546
 H         1.607444         1.784838        -0.401394
 H         2.043845         0.488540         2.354824
 H         0.825298         1.766428         2.699917
