19
Iteration:  2146charge 0 multiplicity 1
 O         0.266523        -0.175687         4.581140
 C         0.302689        -0.453723         3.244703
 C         0.251462        -1.814770         2.722500
 C        -0.948424        -0.909379         2.438205
 C        -1.010514        -0.076616         1.092681
 C         0.446921         0.382237         0.947532
 C         0.804580         0.858509        -0.465942
 O         1.309269        -0.356592         0.098671
 C         1.030314         0.649166         2.354827
 H         1.192096        -0.377319         4.871805
 H         0.849365        -2.148403         1.843593
 H         0.016692        -2.768947         3.283449
 H        -1.780494        -1.131761         3.041451
 H        -1.234721        -0.616081         0.154021
 H        -1.628032         0.857801         1.264401
 H         0.064061         0.614922        -1.197595
 H         1.521240         1.673946        -0.434682
 H         2.064364         0.409723         2.399534
 H         0.703183         1.798991         2.615414
