19
Iteration:  4787charge 0 multiplicity 1
 O         0.233635        -0.103742         4.562242
 C         0.368046        -0.308023         3.214363
 C         0.643994        -1.814922         2.735766
 C        -0.789667        -1.041976         2.514392
 C        -1.020342        -0.447511         1.053534
 C         0.299404         0.298219         0.904894
 C         0.640153         0.930041        -0.329278
 O         1.296352        -0.258447         0.056104
 C         0.815199         0.810124         2.310845
 H         0.865818        -0.687959         5.068054
 H         1.227308        -1.960057         1.823327
 H         0.779786        -2.575865         3.585524
 H        -1.672869        -1.398887         3.054792
 H        -1.318927        -0.888283         0.187019
 H        -1.743661         0.385458         1.196622
 H        -0.060179         0.645154        -1.170253
 H         1.270841         1.749429        -0.450702
 H         1.862082         1.108687         1.981768
 H         0.334208         1.731357         2.706640
