19
Iteration:   687charge 0 multiplicity 1
 O         0.272695         0.036441         4.513855
 C         0.335042        -0.431589         3.247127
 C         0.110235        -1.962906         2.854919
 C        -0.928696        -0.862312         2.541606
 C        -0.971976        -0.261514         1.140577
 C         0.393493         0.339497         0.901955
 C         0.944499         1.075455        -0.292775
 O         1.250410        -0.341705        -0.140514
 C         1.129705         0.438056         2.244735
 H        -0.117670        -0.618616         5.152178
 H         0.717185        -2.396101         2.031216
 H        -0.104486        -2.555987         3.690448
 H        -1.888735        -0.922098         2.991545
 H        -1.408771        -0.939798         0.370761
 H        -1.714369         0.653323         1.211861
 H         0.420894         1.390794        -1.193134
 H         1.904040         1.710078        -0.131120
 H         2.242719         0.402687         2.263165
 H         0.941329         1.568706         2.700973
