19
Iteration:   562charge 0 multiplicity 1
 O         0.445026        -0.187072         4.702025
 C         0.232214        -0.367038         3.265344
 C         0.113908        -1.720774         2.679217
 C        -1.091325        -0.757915         2.503358
 C        -0.971138        -0.353717         1.030937
 C         0.448803         0.254788         0.925441
 C         0.882848         1.000828        -0.293073
 O         1.316257        -0.365675        -0.091685
 C         0.981880         0.541362         2.317170
 H         1.024353         0.644860         4.660004
 H         0.883348        -2.046962         1.946915
 H         0.106859        -2.461209         3.423524
 H        -1.873553        -1.204034         3.106142
 H        -1.060451        -1.246401         0.308691
 H        -1.681731         0.426070         0.935964
 H         0.191923         1.220620        -1.173322
 H         1.742652         1.644402        -0.274033
 H         2.117099         0.431273         2.327823
 H         0.707465         1.680637         2.563617
