19
Iteration:  4111charge 0 multiplicity 1
 O         0.472446        -0.061715         4.587316
 C         0.365329        -0.344318         3.172919
 C         0.433427        -1.765599         2.705826
 C        -0.913505        -1.096675         2.426327
 C        -1.076912        -0.352497         1.136432
 C         0.293046         0.302328         0.947867
 C         0.821564         0.952354        -0.276290
 O         1.290891        -0.396649        -0.043629
 C         0.844791         0.828936         2.318088
 H        -0.131240        -0.470740         5.183680
 H         1.020570        -2.087922         1.870949
 H         0.447691        -2.464054         3.614267
 H        -1.951459        -1.347650         2.899727
 H        -1.443987        -0.945668         0.300160
 H        -1.940216         0.255697         1.294394
 H         0.261190         1.069111        -1.219232
 H         1.452848         1.839242        -0.137023
 H         1.931884         0.841542         2.426485
 H         0.445771         1.771433         2.616869
