19
Iteration:  2496
 O         0.286426        -0.184637         4.543828
 C         0.293982        -0.419240         3.149404
 C         0.256723        -1.827439         2.635033
 C        -0.988332        -0.838809         2.439172
 C        -0.969257        -0.105699         1.096734
 C         0.435752         0.378262         1.001420
 C         0.827859         0.814706        -0.363985
 O         1.341862        -0.451860         0.062308
 C         0.978584         0.761340         2.447517
 H         1.117010        -0.584852         4.791011
 H         0.823296        -2.055236         1.732550
 H         0.142849        -2.554091         3.507446
 H        -1.788965        -1.200025         2.966915
 H        -1.481626        -0.663143         0.349408
 H        -1.530537         0.763052         1.245882
 H        -0.088601         0.709989        -1.057469
 H         1.577746         1.575575        -0.543561
 H         2.090069         0.687648         2.511001
 H         0.570331         1.766586         2.664139
