19
Iteration:  2934
 O         0.209065        -0.153653         4.644482
 C         0.370487        -0.401980         3.192837
 C         0.305933        -1.887629         2.620491
 C        -0.847165        -0.917278         2.482858
 C        -1.039764        -0.153638         1.185753
 C         0.381333         0.434457         0.888830
 C         0.960672         0.913278        -0.368750
 O         1.226882        -0.483793         0.055358
 C         0.900235         0.767398         2.272697
 H         1.093897        -0.390795         5.051161
 H         0.971285        -1.997019         1.780434
 H         0.159900        -2.716339         3.245075
 H        -1.718698        -1.131415         3.011681
 H        -1.431543        -0.673336         0.334337
 H        -1.857560         0.564997         1.396102
 H         0.368492         1.037134        -1.304174
 H         1.916530         1.402604        -0.372169
 H         1.994762         0.773259         2.330179
 H         0.647040         1.692914         2.763279
