19
Iteration:  4606charge 0 multiplicity 1
 O         0.282052         0.104283         4.539856
 C         0.344916        -0.399281         3.248254
 C         0.407129        -1.882349         2.897138
 C        -0.768104        -1.077462         2.484853
 C        -0.950163        -0.479233         1.159425
 C         0.355532         0.249207         0.892948
 C         0.687098         1.151706        -0.236515
 O         1.211122        -0.162281        -0.154111
 C         0.994535         0.542223         2.205917
 H        -0.146345        -0.568019         5.082061
 H         1.237527        -2.290812         2.345592
 H         0.043088        -2.701822         3.549235
 H        -1.656980        -1.366247         3.023380
 H        -1.122973        -1.365634         0.444056
 H        -1.850695         0.125718         1.096309
 H         0.016700         1.226724        -1.161434
 H         1.439043         2.012581        -0.220156
 H         2.082204         0.387789         2.113946
 H         0.726908         1.646959         2.452679
