19
Iteration:  3676
 O         0.339525        -0.251396         4.681771
 C         0.259608        -0.320358         3.176251
 C         0.307473        -1.744790         2.693132
 C        -0.957929        -0.864117         2.539699
 C        -0.950290        -0.318108         1.120877
 C         0.361623         0.400563         0.901463
 C         0.848608         0.899599        -0.405208
 O         1.325313        -0.405840        -0.016056
 C         0.884084         0.712051         2.330233
 H         1.261478         0.102062         4.784672
 H         0.978255        -2.024041         1.942469
 H         0.131036        -2.605165         3.369567
 H        -1.873791        -1.016817         3.167534
 H        -1.118382        -1.066607         0.382491
 H        -1.807076         0.330753         1.136728
 H         0.217849         0.934945        -1.381106
 H         1.708016         1.683683        -0.427485
 H         1.950748         0.815025         2.166370
 H         0.381988         1.600369         2.662440
