19
Iteration:  4323charge 0 multiplicity 1
 O         0.340602         0.011920         4.555484
 C         0.311324        -0.417284         3.282875
 C         0.305537        -1.851665         2.881114
 C        -0.964718        -0.966903         2.514188
 C        -0.964109        -0.543003         1.089439
 C         0.445778         0.280583         0.876626
 C         0.702571         1.116558        -0.311152
 O         1.270709        -0.147954        -0.143233
 C         1.009794         0.546942         2.271947
 H         1.141370        -0.321683         4.950096
 H         0.945814        -2.222987         2.123428
 H         0.223881        -2.407780         3.857137
 H        -1.836737        -1.083111         3.165261
 H        -1.054846        -1.434038         0.311171
 H        -1.870133         0.002719         0.803596
 H        -0.103703         1.077048        -1.116628
 H         1.397593         1.910892        -0.168813
 H         2.092630         0.529045         2.377686
 H         0.635718         1.575906         2.561844
