19
Iteration:  4146charge 0 multiplicity 1
 O         0.375625        -0.019573         4.580726
 C         0.357543        -0.422872         3.249695
 C         0.376528        -1.911929         2.744834
 C        -0.904159        -0.934267         2.521263
 C        -0.973788        -0.414996         1.181500
 C         0.371826         0.299009         0.878095
 C         0.641319         1.013874        -0.402777
 O         1.313456        -0.228834        -0.036202
 C         0.972604         0.673596         2.313139
 H        -0.461010        -0.369274         4.895259
 H         0.887424        -2.249738         1.899798
 H         0.336299        -2.625247         3.476407
 H        -1.851155        -1.112630         3.002788
 H        -1.083990        -1.293050         0.438423
 H        -1.655716         0.369626         1.177657
 H         0.196667         0.775362        -1.317704
 H         1.204625         1.974364        -0.231482
 H         2.074391         0.527296         2.291146
 H         0.740837         1.778317         2.554315
