19
Iteration:   519
 O         0.185350        -0.168391         4.508200
 C         0.427929        -0.430194         3.125982
 C         0.255826        -1.878746         2.791674
 C        -0.878973        -0.909303         2.460788
 C        -1.014247        -0.142677         1.184204
 C         0.382354         0.397182         0.948162
 C         0.915476         0.930442        -0.386061
 O         1.238393        -0.426578         0.083024
 C         1.021668         0.654694         2.259796
 H         0.967205         0.318247         4.910717
 H         0.779521        -2.352872         1.946620
 H         0.111666        -2.433226         3.672649
 H        -1.875709        -0.952127         2.870818
 H        -1.611179        -0.737104         0.381575
 H        -1.575042         0.799756         1.423015
 H         0.062786         0.914434        -1.072430
 H         1.701513         1.665075        -0.444551
 H         2.126168         0.599200         2.215950
 H         0.717866         1.653714         2.746921
