19
Iteration:  2544
 O         0.137781        -0.210191         4.598216
 C         0.346955        -0.392113         3.220369
 C         0.403608        -1.750308         2.677302
 C        -0.859848        -0.943730         2.448363
 C        -1.082034        -0.096629         1.167422
 C         0.344095         0.386370         0.950280
 C         1.053006         0.893484        -0.413599
 O         1.115649        -0.486459         0.008735
 C         1.016275         0.722662         2.308450
 H         1.041476        -0.461468         4.941337
 H         1.000971        -2.072785         1.797886
 H         0.337294        -2.413166         3.488405
 H        -1.696495        -1.049605         3.293203
 H        -1.236140        -0.689958         0.241762
 H        -1.917280         0.591736         1.342019
 H         0.451847         1.068340        -1.327806
 H         1.939574         1.553339        -0.059646
 H         2.057941         0.487067         2.284303
 H         0.794159         1.712228         2.709497
