19
Iteration:  4578charge 0 multiplicity 1
 O         0.171986         0.033937         4.492325
 C         0.332671        -0.404060         3.202029
 C         0.456853        -1.800488         2.926500
 C        -0.838902        -1.129930         2.442514
 C        -0.928927        -0.384196         1.124295
 C         0.409781         0.266630         0.985624
 C         0.651343         1.100661        -0.271039
 O         1.191850        -0.212956        -0.187195
 C         1.034664         0.492345         2.324431
 H         1.065635         0.126016         4.850541
 H         1.180905        -2.162788         2.202192
 H         0.569334        -2.574049         3.680808
 H        -1.694241        -1.093978         3.129132
 H        -1.155820        -1.032216         0.299642
 H        -1.774241         0.348261         1.203786
 H        -0.068596         1.135114        -1.030267
 H         1.304547         1.987391        -0.190493
 H         2.126583         0.414116         2.271608
 H         0.712807         1.449625         2.607264
