19
Iteration:  1618charge 0 multiplicity 1
 O         0.311248        -0.078385         4.602442
 C         0.335308        -0.486210         3.227145
 C         0.028136        -1.930356         2.920901
 C        -0.984337        -0.679877         2.550920
 C        -0.933360        -0.392946         1.016628
 C         0.476109         0.186303         0.882334
 C         0.807132         1.153293        -0.158805
 O         1.373806        -0.233023        -0.173832
 C         1.078310         0.479940         2.190635
 H         1.250557         0.159453         4.775069
 H         0.351421        -2.465416         1.982183
 H        -0.409612        -2.589851         3.726848
 H        -1.984911        -0.806876         3.112651
 H        -1.122143        -1.284218         0.333058
 H        -1.715063         0.276757         0.719877
 H         0.043471         1.296207        -1.016322
 H         1.592816         1.900544         0.029657
 H         2.152732         0.450888         2.195627
 H         0.705031         1.507108         2.451875
