19
Iteration:  2602charge 0 multiplicity 1
 O         0.215140        -0.053381         4.566000
 C         0.295403        -0.453211         3.200925
 C         0.155223        -1.841336         2.802865
 C        -0.965931        -0.851306         2.553982
 C        -1.013388        -0.304637         1.147030
 C         0.413903         0.296154         0.903527
 C         0.854133         1.003455        -0.319130
 O         1.380331        -0.264268        -0.108959
 C         1.106989         0.503079         2.294750
 H         1.067076        -0.274697         4.931288
 H         0.720516        -2.158615         1.920464
 H         0.147430        -2.619591         3.650682
 H        -1.865433        -0.970474         3.106389
 H        -1.316880        -0.982832         0.311907
 H        -1.831558         0.527373         1.182475
 H         0.088278         1.167012        -1.047337
 H         1.571342         1.783802        -0.342707
 H         2.162011         0.235977         2.069364
 H         1.078368         1.572948         2.622553
