19
Iteration:  4201
 O         0.269726         0.127558         4.626157
 C         0.348344        -0.429748         3.314176
 C         0.368772        -1.914397         2.889530
 C        -0.835178        -1.051059         2.536493
 C        -0.967661        -0.545046         1.151347
 C         0.379895         0.279509         0.829580
 C         0.728806         1.145579        -0.261175
 O         1.234360        -0.160932        -0.266593
 C         1.091183         0.504247         2.249384
 H        -0.583779        -0.126683         4.966096
 H         0.877261        -2.292034         2.003708
 H         0.142748        -2.636425         3.566048
 H        -1.732350        -1.205946         3.070325
 H        -1.278080        -1.202928         0.245954
 H        -1.769067         0.157527         1.123112
 H        -0.095273         1.363295        -0.908133
 H         1.453220         1.983422        -0.198250
 H         2.185913         0.458357         2.204112
 H         0.879667         1.596818         2.385290
