19
Iteration:  3317
 O         0.485146        -0.090528         4.519419
 C         0.312054        -0.389709         3.156276
 C         0.155516        -1.843449         2.579744
 C        -0.967146        -0.859712         2.431658
 C        -1.050003        -0.162990         1.088153
 C         0.403123         0.403070         0.976588
 C         0.862980         0.825070        -0.320481
 O         1.324049        -0.451014         0.187291
 C         0.943107         0.701972         2.366197
 H         0.309495        -0.835164         5.096945
 H         0.665939        -2.264725         1.671153
 H        -0.027011        -2.640422         3.384255
 H        -1.865314        -1.043309         2.917108
 H        -1.341554        -0.825218         0.307224
 H        -1.600098         0.810181         1.118797
 H         0.217702         0.895644        -1.204597
 H         1.570619         1.703163        -0.203645
 H         2.007988         0.586161         2.125999
 H         0.715625         1.610918         2.872893
