19
Iteration:  3338
 O         0.502552        -0.114511         4.556763
 C         0.199184        -0.409381         3.237532
 C         0.168566        -1.808512         2.621885
 C        -1.073985        -0.881702         2.457887
 C        -1.131920        -0.063499         1.163814
 C         0.395061         0.471201         0.955610
 C         0.959762         0.753545        -0.350411
 O         1.447158        -0.421117         0.069586
 C         0.886172         0.599239         2.323458
 H         1.199814        -0.743555         4.915728
 H         0.823577        -1.837645         1.716607
 H         0.269454        -2.739862         3.282502
 H        -1.948932        -1.203716         2.895008
 H        -1.249659        -0.690373         0.291210
 H        -2.033575         0.645858         1.350441
 H         0.329914         0.733921        -1.176003
 H         1.679429         1.636423        -0.531481
 H         1.989482         0.711525         2.401375
 H         0.423372         1.549986         2.647684
