19
Iteration:   313
 O         0.107982         0.074923         4.526478
 C         0.311963        -0.495027         3.242552
 C         0.289022        -1.942488         2.906442
 C        -0.936018        -0.955810         2.475846
 C        -0.957969        -0.132866         1.151978
 C         0.475448         0.292274         0.964275
 C         0.836574         1.086668        -0.305528
 O         1.220692        -0.322970        -0.135988
 C         1.179360         0.357918         2.257134
 H         0.832822         0.710973         4.671287
 H         0.958223        -2.263697         2.168163
 H        -0.152960        -2.669154         3.557737
 H        -1.857511        -1.378626         2.962303
 H        -1.284131        -0.685855         0.317540
 H        -1.660882         0.723396         1.150303
 H        -0.068845         1.231701        -1.080371
 H         1.704360         1.733773        -0.330183
 H         2.203662         0.026247         2.142776
 H         1.186354         1.433808         2.606077
