19
Iteration:  2373
 O         0.077068         0.034762         4.456370
 C         0.353887        -0.432672         3.176875
 C         0.091994        -1.956139         2.962088
 C        -0.925872        -0.983185         2.473000
 C        -0.946334        -0.208660         1.206861
 C         0.501459         0.277928         0.938345
 C         0.773276         1.131193        -0.364561
 O         1.283363        -0.187457        -0.147947
 C         1.274968         0.303320         2.270798
 H         0.779999        -0.111988         5.071284
 H         0.961427        -2.335993         2.328624
 H        -0.037131        -2.405502         3.959682
 H        -1.801003        -0.873469         3.204130
 H        -1.398586        -0.714244         0.361354
 H        -1.677192         0.506339         1.426022
 H        -0.063005         1.243362        -1.031212
 H         1.540231         1.945289        -0.331599
 H         2.266604        -0.175971         2.021601
 H         1.679392         1.211178         2.807465
