19
Iteration:  3807charge 0 multiplicity 1
 O         0.340898        -0.081746         4.629742
 C         0.319249        -0.408776         3.227662
 C         0.307625        -1.848598         2.831494
 C        -0.942172        -0.957187         2.570243
 C        -0.967521        -0.384824         1.174302
 C         0.390634         0.338353         0.895373
 C         0.782413         1.048098        -0.362552
 O         1.299398        -0.255328        -0.148677
 C         1.053652         0.601848         2.230420
 H        -0.638328         0.026499         4.819861
 H         0.904708        -2.253812         2.042667
 H        -0.035516        -2.347341         3.625848
 H        -1.809254        -1.368261         3.033042
 H        -1.293041        -1.167202         0.506223
 H        -1.709251         0.402287         1.014514
 H        -0.086094         0.997643        -1.076357
 H         1.480971         1.871836        -0.393832
 H         2.102519         0.364992         2.160400
 H         1.030522         1.625098         2.494047
