19
Iteration:  1280
 O         0.216144        -0.064831         4.630326
 C         0.337313        -0.377453         3.209476
 C         0.099801        -1.860873         2.852318
 C        -0.998507        -0.730053         2.573180
 C        -0.861426        -0.411461         1.106293
 C         0.476966         0.232212         0.879533
 C         0.842716         1.093222        -0.228623
 O         1.248896        -0.281237        -0.257687
 C         1.164053         0.483602         2.260434
 H         0.647134        -0.816823         5.038212
 H         0.323947        -2.289603         1.735422
 H        -0.117677        -2.671529         3.593745
 H        -1.896973        -0.589361         3.222747
 H        -0.818904        -1.337756         0.595957
 H        -1.676465         0.208166         0.654753
 H         0.137889         1.369648        -0.987498
 H         1.536699         1.919700         0.062375
 H         2.199462         0.403430         2.378691
 H         0.999411         1.618633         2.632264
