19
Iteration:  3098
 O         0.295743         0.096035         4.488805
 C         0.306683        -0.517813         3.188596
 C         0.209002        -1.907694         2.993948
 C        -0.957871        -1.009626         2.478316
 C        -0.990746        -0.274054         1.104340
 C         0.464212         0.278345         0.913362
 C         0.818002         1.104409        -0.228491
 O         1.281437        -0.181140        -0.180828
 C         1.130284         0.382776         2.227942
 H        -0.181960        -0.598716         4.983972
 H         0.902240        -2.557482         2.406831
 H        -0.257176        -2.332710         3.955733
 H        -1.978265        -1.013674         3.014631
 H        -1.386346        -0.925379         0.369998
 H        -1.548918         0.614272         0.972539
 H         0.012600         1.546285        -0.885751
 H         1.710337         1.887077        -0.133889
 H         2.187982         0.109824         2.371580
 H         1.063371         1.385590         2.594736
