19
Iteration:  4560
 O         0.139737        -0.020380         4.660093
 C         0.315166        -0.393995         3.275802
 C         0.425150        -1.944575         2.787258
 C        -0.792436        -1.020858         2.559106
 C        -0.944908        -0.457535         1.192473
 C         0.401707         0.325802         0.872733
 C         0.656232         1.130350        -0.361996
 O         1.252645        -0.258655        -0.158028
 C         1.058428         0.636616         2.224133
 H         0.744617         0.716650         4.801611
 H         1.137077        -2.430807         1.999603
 H         0.216573        -2.697233         3.561870
 H        -1.630946        -1.615362         2.921751
 H        -1.240814        -1.101709         0.374629
 H        -1.721724         0.380509         1.191700
 H        -0.218020         1.382357        -1.034655
 H         1.397704         1.878620        -0.335054
 H         2.138508         0.326900         2.085621
 H         0.968707         1.738355         2.533730
