19
Iteration:  1664charge 0 multiplicity 1
 O         0.188461         0.111382         4.535961
 C         0.260992        -0.452160         3.255945
 C         0.072982        -1.971555         2.988422
 C        -0.916554        -0.932400         2.453924
 C        -0.875505        -0.257702         1.107422
 C         0.532494         0.314076         0.910896
 C         0.765051         1.166833        -0.253689
 O         1.260672        -0.206876        -0.245618
 C         1.231270         0.261692         2.260073
 H         0.457376        -0.591685         5.196971
 H         0.979752        -2.253400         2.363271
 H        -0.162242        -2.640342         3.777134
 H        -1.940616        -0.989405         2.995598
 H        -1.049505        -1.001021         0.307298
 H        -1.658037         0.547564         0.947139
 H        -0.202711         1.336945        -0.825795
 H         1.489713         1.968519        -0.231507
 H         2.106585        -0.238348         2.126203
 H         1.449779         1.277957         2.737998
