19
Iteration:  4183
 O         0.339966         0.013376         4.587716
 C         0.311011        -0.397974         3.199249
 C         0.387675        -1.907317         2.951884
 C        -0.845093        -0.980817         2.479380
 C        -0.868843        -0.410172         1.083742
 C         0.427696         0.273610         0.902471
 C         0.588365         1.154026        -0.327849
 O         1.208961        -0.245795        -0.168564
 C         1.019417         0.527055         2.335221
 H        -0.496272        -0.213789         4.959659
 H         1.249509        -2.143688         2.253787
 H         0.126411        -2.521108         3.923769
 H        -1.841077        -1.230283         2.902005
 H        -1.059201        -1.172807         0.309372
 H        -1.799461         0.204373         0.762026
 H        -0.020435         1.211113        -1.286307
 H         1.285576         1.965507        -0.235844
 H         2.108527         0.298696         2.218734
 H         0.934224         1.647584         2.720906
