19
Iteration:  4090
 O         0.476825        -0.059934         4.531240
 C         0.273666        -0.328067         3.201738
 C         0.497250        -1.783795         2.694669
 C        -0.825073        -1.046252         2.443112
 C        -1.005568        -0.301391         1.084789
 C         0.316192         0.410519         0.953011
 C         0.875102         0.990440        -0.335714
 O         1.126369        -0.432419         0.143640
 C         0.760478         0.702088         2.265329
 H         0.103706        -0.824365         5.075881
 H         1.245346        -1.861365         1.992490
 H         0.435685        -2.593119         3.448455
 H        -1.738786        -1.492009         2.979981
 H        -1.198470        -1.055885         0.307652
 H        -1.851777         0.340814         1.160563
 H         0.225495         1.026341        -1.210709
 H         1.770030         1.603364        -0.487166
 H         1.843724         0.733119         2.427808
 H         0.318882         1.705469         2.553247
