19
Iteration:  3139charge 0 multiplicity 1
 O         0.390222         0.101741         4.565885
 C         0.328222        -0.496552         3.253526
 C         0.019271        -1.887139         2.860507
 C        -1.020444        -0.823601         2.560567
 C        -0.895761        -0.492437         1.053860
 C         0.482193         0.238836         0.925178
 C         0.800687         1.164869        -0.258721
 O         1.296348        -0.144036        -0.201895
 C         1.121021         0.381913         2.299371
 H         0.021729        -0.541407         5.157920
 H         0.665915        -2.290647         2.146126
 H        -0.298486        -2.580372         3.642840
 H        -2.012353        -1.052816         3.093914
 H        -0.867933        -1.310471         0.311246
 H        -1.773989         0.133888         0.640208
 H        -0.085711         1.113765        -0.918154
 H         1.538270         1.981366        -0.221903
 H         2.202853         0.211005         2.051855
 H         1.117611         1.419186         2.663287
