19
Iteration:  3477charge 0 multiplicity 1
 O         0.384918         0.056104         4.582671
 C         0.318335        -0.396615         3.237355
 C         0.055715        -1.921628         2.861256
 C        -0.905790        -0.849059         2.529533
 C        -0.904486        -0.478083         1.030009
 C         0.396109         0.303524         0.897643
 C         0.842245         1.094274        -0.333420
 O         1.195175        -0.219992        -0.174508
 C         1.143532         0.433491         2.358629
 H        -0.489896        -0.035711         5.012159
 H         0.636851        -2.463202         2.118650
 H        -0.279201        -2.490865         3.796442
 H        -1.784287        -0.766572         3.074867
 H        -0.654244        -1.372666         0.405051
 H        -1.812052        -0.074544         0.698175
 H         0.127536         1.627108        -0.974583
 H         1.747559         1.789048        -0.046745
 H         2.221515         0.198493         2.242644
 H         1.167875         1.410678         2.889370
