19
Iteration:  3501
 O         0.447090        -0.050891         4.603754
 C         0.253063        -0.345371         3.217391
 C         0.034696        -1.876453         3.019965
 C        -1.046333        -0.825140         2.525550
 C        -0.851725        -0.483120         0.984813
 C         0.463297         0.183725         0.824434
 C         0.725744         1.188719        -0.189079
 O         1.352642        -0.199477        -0.190551
 C         1.110384         0.398632         2.233324
 H        -0.123832         0.640662         4.921145
 H         0.470989        -2.459172         2.148035
 H         0.021250        -2.290094         4.041681
 H        -2.086631        -1.014646         2.794170
 H        -0.895749        -1.375989         0.361148
 H        -1.690314         0.199562         0.708634
 H        -0.066005         1.257444        -0.907240
 H         1.351613         2.136584        -0.145555
 H         2.165598        -0.000188         2.140412
 H         1.305206         1.443914         2.651875
