19
Iteration:  2077charge 0 multiplicity 1
 O         0.345004         0.065021         4.539148
 C         0.236993        -0.425508         3.198119
 C         0.107376        -1.945232         2.925912
 C        -0.974210        -0.982448         2.538641
 C        -0.988959        -0.308939         1.032423
 C         0.439193         0.264138         0.917375
 C         0.923210         1.126271        -0.224712
 O         1.288414        -0.200685        -0.174727
 C         1.037383         0.464005         2.285259
 H         1.081022        -0.465912         4.971831
 H         0.673616        -2.426133         2.111949
 H        -0.230595        -2.696849         3.628624
 H        -1.969547        -1.060715         3.105107
 H        -1.019551        -1.114915         0.293572
 H        -1.682802         0.491223         0.962893
 H         0.181711         1.218576        -1.096209
 H         1.885335         1.756299        -0.011116
 H         2.101106         0.076318         2.169820
 H         0.977176         1.519796         2.677472
