19
Iteration:  2215
 O         0.263100        -0.188770         4.618470
 C         0.317916        -0.340332         3.259797
 C         0.377621        -1.737163         2.719230
 C        -0.881682        -0.882312         2.432532
 C        -1.056298        -0.112808         1.127045
 C         0.320472         0.362703         0.902484
 C         1.066391         0.908038        -0.287290
 O         1.111938        -0.505309        -0.045871
 C         0.991492         0.641513         2.265534
 H         0.904136        -0.582346         5.193742
 H         1.016976        -2.022859         1.915381
 H         0.117179        -2.619882         3.225418
 H        -1.817916        -1.233361         2.978800
 H        -1.278115        -0.799132         0.259848
 H        -1.978517         0.644193         1.122992
 H         0.421510         1.275046        -1.066331
 H         1.780511         1.466129         0.174797
 H         2.130284         0.531575         2.091130
 H         0.573453         1.788369         2.636618
