19
Iteration:  2202
 O         0.185242        -0.181187         4.617824
 C         0.366849        -0.379847         3.194206
 C         0.378641        -1.745256         2.604675
 C        -0.856746        -0.888058         2.505767
 C        -1.093311        -0.160452         1.170406
 C         0.373681         0.392229         0.868926
 C         1.119665         0.973729        -0.250094
 O         1.044501        -0.534340         0.011038
 C         0.924877         0.636634         2.269492
 H         1.123673        -0.367098         4.902183
 H         1.029524        -1.909441         1.741519
 H         0.374600        -2.463300         3.432659
 H        -1.684204        -1.131491         3.179591
 H        -1.340397        -0.877486         0.361882
 H        -1.876426         0.654113         1.331398
 H         0.755883         1.230087        -1.239037
 H         2.129008         1.345133        -0.238541
 H         2.027395         0.604237         2.304826
 H         0.710382         1.830449         2.529600
