19
Iteration:  4281
 O         0.298351         0.060913         4.583862
 C         0.358747        -0.403736         3.219489
 C         0.258129        -1.926928         2.943006
 C        -0.896514        -1.007405         2.582348
 C        -0.870462        -0.536822         1.115988
 C         0.456059         0.227519         0.896213
 C         0.593543         1.153583        -0.389405
 O         1.272811        -0.064097        -0.225480
 C         1.104820         0.504145         2.299627
 H        -0.212317        -0.552442         5.145921
 H         0.941824        -2.130864         2.120170
 H         0.051628        -2.522751         3.878874
 H        -1.820165        -1.086966         3.190683
 H        -1.043588        -1.382701         0.380932
 H        -1.704899         0.147896         0.842885
 H        -0.300545         1.124951        -1.065365
 H         1.296301         1.919497        -0.433673
 H         2.197603         0.225674         2.263587
 H         0.918541         1.620420         2.654314
