19
Iteration:  1060charge 0 multiplicity 1
 O         0.407650        -0.266894         4.624719
 C         0.237438        -0.359412         3.228998
 C         0.130275        -1.770536         2.743322
 C        -1.075109        -0.758925         2.470770
 C        -0.954468        -0.240951         1.099302
 C         0.480319         0.297320         0.968133
 C         0.952852         0.928150        -0.280018
 O         1.274847        -0.447580        -0.123194
 C         0.964085         0.692911         2.305824
 H         1.332148        -0.088047         4.699325
 H         0.782823        -2.174413         1.954746
 H         0.040801        -2.420874         3.695595
 H        -2.032219        -1.014105         2.864155
 H        -1.107943        -0.889078         0.255275
 H        -1.721647         0.547074         1.004454
 H         0.212599         1.239929        -1.084134
 H         1.741622         1.738761        -0.198128
 H         1.933544         0.733323         2.599301
 H         0.580005         1.707584         2.475828
