19
Iteration:  4469charge 0 multiplicity 1
 O         0.439433        -0.028285         4.529419
 C         0.301989        -0.360424         3.164859
 C         0.438986        -1.895266         2.687746
 C        -0.895782        -0.964099         2.570609
 C        -1.068299        -0.340694         1.130771
 C         0.301856         0.388990         0.884636
 C         0.806906         0.922199        -0.361372
 O         1.344354        -0.312712         0.107918
 C         0.796792         0.663989         2.260194
 H         0.522120        -0.900616         5.000975
 H         0.966759        -2.028937         1.760566
 H         0.388470        -2.708534         3.492285
 H        -1.733218        -1.202086         3.216570
 H        -1.331281        -1.010241         0.326529
 H        -1.966458         0.392913         1.197959
 H         0.295772         1.106051        -1.215472
 H         1.499190         1.714413        -0.029901
 H         1.895221         0.927455         2.222739
 H         0.248254         1.616383         2.508348
