19
Iteration:  2796charge 0 multiplicity 1
 O         0.349407         0.007424         4.577722
 C         0.278512        -0.424222         3.216672
 C        -0.011837        -1.894866         3.016904
 C        -1.024706        -0.854063         2.575288
 C        -0.910967        -0.546768         1.065644
 C         0.406433         0.240035         0.851456
 C         0.768358         1.272861        -0.276977
 O         1.445192        -0.072352        -0.188506
 C         1.141552         0.222120         2.223732
 H         0.664850         0.912929         4.574461
 H         0.510595        -2.374108         2.148591
 H        -0.254049        -2.533408         3.863851
 H        -1.942665        -0.742557         3.005265
 H        -0.899658        -1.486686         0.455039
 H        -1.843440        -0.109684         0.847620
 H         0.024638         1.354520        -1.108129
 H         1.241631         2.309315        -0.061698
 H         2.111862        -0.223127         2.066103
 H         1.417704         1.179106         2.632803
