19
Iteration:  3430charge 0 multiplicity 1
 O         0.191153         0.051047         4.558445
 C         0.264368        -0.423042         3.244238
 C         0.361052        -1.882919         2.860874
 C        -0.892941        -0.923611         2.405502
 C        -1.072127        -0.109797         1.139823
 C         0.463672         0.239240         0.942566
 C         0.804249         1.037556        -0.224081
 O         1.283842        -0.404367        -0.187773
 C         1.085107         0.457788         2.294276
 H         0.658751        -0.651250         4.993215
 H         1.165180        -2.272121         2.219163
 H         0.011701        -2.492983         3.626410
 H        -1.921260        -1.221460         2.830589
 H        -1.676960        -0.431183         0.268550
 H        -1.419229         0.846184         1.446429
 H         0.194323         1.086829        -1.206496
 H         1.484251         1.871223        -0.241116
 H         2.091462         0.128812         2.326692
 H         1.154735         1.470476         2.568301
