19
Iteration:   805
 O         0.202994        -0.022274         4.512442
 C         0.253274        -0.408316         3.238137
 C         0.403647        -1.887741         2.662072
 C        -0.876023        -0.985634         2.382703
 C        -0.969475         0.002561         1.252807
 C         0.417867         0.385591         0.908263
 C         0.899220         0.876099        -0.332711
 O         1.170928        -0.499282         0.024335
 C         0.982154         0.620400         2.380154
 H         0.828298        -0.530744         4.999311
 H         1.169541        -2.067673         1.884527
 H         0.078279        -2.778572         3.197834
 H        -1.780323        -1.251581         2.849011
 H        -1.563185        -0.403350         0.375390
 H        -1.513379         0.824114         1.602313
 H         0.288493         1.116441        -1.201929
 H         1.861497         1.489551        -0.442701
 H         2.022094         0.497004         2.307959
 H         0.796771         1.634302         2.670222
