19
Iteration:  1089charge 0 multiplicity 1
 O         0.454432        -0.192281         4.638025
 C         0.310970        -0.450740         3.215540
 C         0.141313        -1.834501         2.637724
 C        -1.054357        -0.736967         2.492778
 C        -1.067476        -0.203129         1.074510
 C         0.369005         0.362508         0.935004
 C         0.986169         0.963374        -0.408974
 O         1.350125        -0.452013         0.130091
 C         0.893799         0.663903         2.274789
 H         1.387685        -0.288627         4.892930
 H         0.655113        -2.197095         1.796241
 H        -0.025789        -2.509588         3.370636
 H        -2.032910        -1.111044         2.907052
 H        -1.416403        -0.925886         0.242274
 H        -1.796105         0.603303         1.036439
 H         0.426990         0.967812        -1.346514
 H         1.749685         1.675282        -0.239583
 H         2.054357         0.670486         2.397531
 H         0.680127         1.668810         2.730802
