19
Iteration:  2779
 O         0.264536        -0.042890         4.558205
 C         0.312401        -0.404944         3.252581
 C         0.003138        -1.910661         3.054405
 C        -0.995943        -0.836316         2.580016
 C        -0.964723        -0.554966         1.067555
 C         0.524896         0.236805         0.884498
 C         0.735121         1.194323        -0.175362
 O         1.360211        -0.027869        -0.288769
 C         1.271534         0.288646         2.152231
 H        -0.182260         0.798012         4.508287
 H         0.615513        -2.531998         2.379782
 H        -0.295888        -2.309842         4.027886
 H        -1.977209        -0.697395         3.205910
 H        -0.859540        -1.478378         0.515451
 H        -1.687871         0.182246         0.589280
 H         0.025095         1.493833        -0.972379
 H         1.493279         1.960425        -0.090872
 H         2.189719        -0.338898         1.977737
 H         1.557866         1.327188         2.477699
