19
Iteration:  2535
 O         0.111692        -0.301776         4.627650
 C         0.350721        -0.310375         3.233757
 C         0.409742        -1.783921         2.641153
 C        -0.865326        -0.843106         2.527753
 C        -1.071009        -0.165678         1.192436
 C         0.356210         0.430424         0.881325
 C         1.020464         0.853057        -0.402377
 O         1.145372        -0.464008         0.035474
 C         1.006806         0.744750         2.261632
 H         0.913278        -0.454854         5.187796
 H         1.068473        -1.885602         1.740660
 H         0.378989        -2.587648         3.389408
 H        -1.877932        -1.147897         3.031585
 H        -1.457904        -0.843113         0.372144
 H        -1.790419         0.754207         1.226646
 H         0.526876         1.049980        -1.311392
 H         2.026051         1.345346        -0.424387
 H         2.101397         0.605361         2.137452
 H         0.998987         1.731185         2.742356
