19
Iteration:    90charge 0 multiplicity 1
 O         0.236919         0.025105         4.511117
 C         0.373707        -0.477203         3.176643
 C         0.192260        -1.897344         2.673412
 C        -0.914766        -0.909206         2.457761
 C        -0.968550        -0.106531         1.177538
 C         0.437378         0.373148         0.968493
 C         0.803437         0.952717        -0.396463
 O         1.249763        -0.450394         0.097400
 C         1.078749         0.556807         2.305167
 H         0.583441        -0.562134         5.171922
 H         0.854723        -2.224887         1.820919
 H         0.074879        -2.771220         3.362753
 H        -1.847076        -1.044231         3.061070
 H        -1.199927        -0.682515         0.328428
 H        -1.541903         0.781162         1.295641
 H         0.103468         1.037698        -1.166270
 H         1.684268         1.619164        -0.272913
 H         2.201915         0.633741         2.293514
 H         0.776695         1.532235         2.743783
