19
Iteration:  1246
 O         0.406541        -0.093769         4.656847
 C         0.207325        -0.368340         3.217166
 C         0.085900        -1.804371         2.956457
 C        -1.039210        -0.874101         2.464284
 C        -0.915979        -0.292419         1.041846
 C         0.422383         0.283263         0.856677
 C         0.803963         1.050304        -0.329777
 O         1.372759        -0.255525        -0.139570
 C         1.115077         0.439038         2.291582
 H         0.928562        -0.776070         5.045778
 H         0.609615        -2.374044         2.070910
 H        -0.418187        -2.478992         3.698413
 H        -2.090478        -0.847891         2.867775
 H        -1.110245        -1.045098         0.280901
 H        -1.595096         0.515625         0.748778
 H         0.098622         1.129548        -1.095423
 H         1.424160         1.972374        -0.122065
 H         2.138401         0.160672         2.443170
 H         0.906296         1.559816         2.532105
