19
Iteration:  2688
 O         0.316303         0.189398         4.439565
 C         0.326005        -0.435689         3.173205
 C         0.108555        -1.907185         3.056049
 C        -0.986492        -0.981738         2.479476
 C        -1.033371        -0.381419         1.006170
 C         0.383044         0.226656         0.874664
 C         0.759931         1.205885        -0.080249
 O         1.373630        -0.141167        -0.210704
 C         1.221981         0.223974         2.268475
 H         0.141061        -0.421420         5.196864
 H         0.718293        -2.634982         2.465701
 H        -0.265656        -2.446471         3.997448
 H        -1.808143        -1.011642         3.114879
 H        -1.183960        -1.072950         0.182774
 H        -1.810665         0.272742         1.059469
 H         0.321381         1.600735        -1.025382
 H         1.564128         2.005203         0.227689
 H         2.105787        -0.269401         1.976752
 H         1.334039         1.238187         2.521069
