19
Iteration:  4016
 O         0.315178        -0.192955         4.676710
 C         0.340073        -0.382501         3.263142
 C         0.384343        -1.824645         2.753998
 C        -0.806042        -0.948501         2.436969
 C        -0.945393        -0.313866         1.133336
 C         0.322332         0.388052         0.949941
 C         0.741643         0.928815        -0.426194
 O         1.282037        -0.357168        -0.087779
 C         0.884441         0.717548         2.318772
 H         0.618062         0.681109         4.909123
 H         1.044488        -2.114840         2.046239
 H         0.215315        -2.606713         3.498238
 H        -1.803881        -1.153927         2.918502
 H        -1.221671        -1.066915         0.276810
 H        -1.906477         0.338591         1.154275
 H        -0.054322         1.053608        -1.146029
 H         1.398330         1.834924        -0.500964
 H         1.987560         0.731934         2.180453
 H         0.621592         1.738697         2.809793
