19
Iteration:   591
 O         0.422790        -0.148557         4.546836
 C         0.312629        -0.440948         3.151234
 C         0.048939        -1.897938         2.917961
 C        -1.011097        -0.828743         2.507907
 C        -0.958412        -0.328851         1.039548
 C         0.409329         0.334993         0.926379
 C         0.898724         1.107051        -0.290447
 O         1.303221        -0.324843        -0.029669
 C         1.045874         0.527564         2.230486
 H         0.143571         0.792198         4.620570
 H         0.627398        -2.476714         2.175362
 H        -0.023810        -2.372298         3.883085
 H        -1.891690        -0.874590         3.140587
 H        -1.150182        -1.023626         0.271327
 H        -1.744736         0.439639         1.124729
 H         0.142550         1.229799        -1.019946
 H         1.827596         1.700135        -0.243019
 H         2.126776         0.391476         2.158405
 H         0.887315         1.506175         2.541713
