19
Iteration:  2641charge 0 multiplicity 1
 O         0.234255        -0.102903         4.656672
 C         0.399491        -0.415824         3.267734
 C        -0.007318        -1.820689         2.953291
 C        -0.989641        -0.783376         2.482059
 C        -0.860793        -0.480992         1.001443
 C         0.550855         0.282372         0.934937
 C         0.781112         1.075490        -0.299196
 O         1.257634        -0.207308        -0.296370
 C         1.152288         0.516662         2.320272
 H         0.929605        -0.536934         5.209866
 H         0.614608        -2.314323         2.212297
 H        -0.302992        -2.531482         3.690556
 H        -1.999821        -0.559716         3.081280
 H        -0.848113        -1.446345         0.484380
 H        -1.627067         0.159404         0.593289
 H        -0.165168         1.317506        -0.854926
 H         1.482741         2.056264        -0.354942
 H         2.220716         0.206997         2.237899
 H         1.019995         1.555924         2.728291
