19
Iteration:  3700charge 0 multiplicity 1
 O         0.348405        -0.142393         4.540430
 C         0.370855        -0.308710         3.169428
 C         0.336805        -1.780726         2.619395
 C        -0.917883        -0.953559         2.591710
 C        -1.081044        -0.237135         1.076148
 C         0.354041         0.286990         0.938139
 C         0.871580         0.873375        -0.288534
 O         1.330008        -0.442992         0.080442
 C         0.828420         0.812061         2.307924
 H         0.963498        -0.775288         5.002435
 H         0.832007        -1.971795         1.706566
 H         0.453250        -2.644650         3.221314
 H        -1.736296        -1.352281         3.160863
 H        -1.502132        -0.764156         0.291823
 H        -1.645394         0.695016         1.222338
 H         0.299934         1.049521        -1.254632
 H         1.739973         1.478462        -0.228722
 H         1.881812         1.062219         2.219566
 H         0.213633         1.701108         2.485606
