19
Iteration:  2705
 O         0.244638         0.214516         4.426597
 C         0.270692        -0.490016         3.212407
 C         0.163793        -1.940001         3.071392
 C        -0.910249        -0.922416         2.481442
 C        -0.964584        -0.424801         1.107386
 C         0.399402         0.231614         0.859861
 C         0.878615         1.245361        -0.073670
 O         1.258885        -0.108217        -0.187067
 C         1.194053         0.169750         2.115591
 H        -0.338209        -0.362624         5.003070
 H         0.882350        -2.369708         2.421195
 H        -0.206623        -2.421745         3.949416
 H        -1.928384        -0.984804         3.103077
 H        -1.154682        -1.203331         0.324512
 H        -1.743779         0.456300         0.939146
 H         0.075075         1.472825        -0.751988
 H         1.629018         2.019222         0.171815
 H         2.149690        -0.444497         1.970517
 H         1.707106         1.141763         2.457448
