19
Iteration:  3196charge 0 multiplicity 1
 O         0.216478         0.057369         4.558899
 C         0.349683        -0.496980         3.185399
 C         0.148109        -1.941725         2.944304
 C        -0.908851        -0.873445         2.561678
 C        -0.969131        -0.348046         1.096817
 C         0.420214         0.288823         0.846558
 C         0.808833         1.116562        -0.289654
 O         1.309129        -0.214434        -0.184936
 C         1.119530         0.424860         2.274833
 H         0.702553        -0.684491         5.027528
 H         0.796689        -2.445994         2.153665
 H        -0.253389        -2.516105         3.792451
 H        -1.758528        -0.731246         3.291928
 H        -1.061974        -1.122254         0.348203
 H        -1.801842         0.378472         0.992037
 H         0.208313         1.449432        -1.155128
 H         1.417177         2.056221         0.032771
 H         2.184156         0.116897         2.106455
 H         1.042559         1.401481         2.705107
