19
Iteration:  4221
 O         0.258217         0.129576         4.471482
 C         0.322200        -0.451393         3.221312
 C         0.408129        -1.884327         2.924117
 C        -0.853218        -1.027062         2.604464
 C        -0.964840        -0.441950         1.161951
 C         0.371777         0.201105         0.830719
 C         0.689284         1.167125        -0.155456
 O         1.245788        -0.166390        -0.282711
 C         1.051841         0.442633         2.259576
 H        -0.652251        -0.113624         4.816743
 H         1.152881        -2.195805         2.208672
 H         0.485839        -2.493164         3.737302
 H        -1.665130        -1.255134         3.289154
 H        -1.036165        -1.303599         0.422171
 H        -1.771816         0.251161         0.995124
 H         0.066064         1.511787        -0.943485
 H         1.478513         1.922197         0.173639
 H         2.105785         0.227640         2.197042
 H         0.978235         1.395422         2.636330
