19
Iteration:   548
 O         0.371605        -0.200065         4.689854
 C         0.261198        -0.353480         3.242650
 C         0.213925        -1.767205         2.705490
 C        -0.995660        -0.834867         2.534810
 C        -1.040981        -0.258523         1.089280
 C         0.466739         0.262225         0.908256
 C         0.904106         1.001560        -0.350101
 O         1.327466        -0.414058        -0.056547
 C         0.960168         0.597390         2.277569
 H         0.965354         0.489304         4.954726
 H         0.526751        -1.861370         1.675213
 H         0.123069        -2.657468         3.347666
 H        -2.050373        -0.833846         2.881625
 H        -1.315686        -1.048573         0.442178
 H        -1.708203         0.514437         0.802739
 H         0.015516         0.980130        -0.935893
 H         1.738083         1.777942        -0.351513
 H         2.075642         0.469802         2.403832
 H         0.722126         1.642504         2.483759
