19
Iteration:  4760charge 0 multiplicity 1
 O         0.226159        -0.151145         4.629671
 C         0.331863        -0.355904         3.236959
 C         0.626109        -1.761931         2.681854
 C        -0.798380        -1.141883         2.517436
 C        -1.075918        -0.434238         1.273227
 C         0.365104         0.428673         0.895685
 C         0.758813         0.990543        -0.423636
 O         1.263805        -0.299833        -0.018960
 C         0.826873         0.754373         2.259001
 H         0.502525         0.724388         4.960360
 H         1.187108        -1.945433         1.750435
 H         0.638489        -2.503790         3.417105
 H        -1.688839        -1.613509         2.970881
 H        -1.026213        -1.057019         0.246688
 H        -2.095515        -0.039295         1.358823
 H        -0.037754         0.758883        -1.101054
 H         1.602812         1.783342        -0.616795
 H         1.866468         1.035575         2.118471
 H         0.305022         1.735632         2.569967
