19
Iteration:  1607
 O         0.343907        -0.082261         4.624933
 C         0.345519        -0.430889         3.187554
 C        -0.002179        -1.803278         2.788862
 C        -1.012453        -0.773486         2.514435
 C        -0.952156        -0.399441         1.074208
 C         0.520200         0.135954         0.886365
 C         0.839430         1.067648        -0.143065
 O         1.357803        -0.255267        -0.264435
 C         1.009337         0.507277         2.335481
 H         1.231163         0.146746         4.861925
 H         0.448339        -2.407142         1.955478
 H        -0.207938        -2.401559         3.744582
 H        -1.885289        -0.628270         3.227968
 H        -0.986162        -1.317883         0.409408
 H        -1.606257         0.378499         0.772351
 H         0.098977         1.433520        -0.953088
 H         1.501503         1.887269         0.196909
 H         2.079126         0.560847         2.365860
 H         0.636663         1.521311         2.642501
