19
Iteration:  1308charge 0 multiplicity 1
 O         0.188751         0.070471         4.544048
 C         0.355829        -0.462027         3.241239
 C         0.169455        -2.003854         2.946612
 C        -0.971045        -0.929525         2.438165
 C        -0.972735        -0.225632         1.061850
 C         0.444429         0.293722         0.898507
 C         0.867677         1.112884        -0.263837
 O         1.227812        -0.236080        -0.131028
 C         1.177546         0.397906         2.259165
 H         1.048215        -0.107005         4.923056
 H         0.662480        -2.594734         2.284530
 H        -0.231801        -2.581869         3.762759
 H        -1.839144        -0.977393         3.124652
 H        -1.147847        -1.025642         0.234196
 H        -1.677132         0.604738         1.021804
 H         0.044396         1.379878        -0.966693
 H         1.624440         1.927038        -0.175502
 H         2.233670        -0.095416         2.217933
 H         1.264742         1.348466         2.703920
