19
Iteration:  4551charge 0 multiplicity 1
 O         0.143239        -0.060782         4.738614
 C         0.391931        -0.389185         3.312058
 C         0.434986        -1.956397         2.772465
 C        -0.805447        -1.024756         2.540849
 C        -0.961273        -0.380411         1.126240
 C         0.366317         0.326342         0.882549
 C         0.671993         1.131624        -0.407128
 O         1.265620        -0.276311        -0.161901
 C         1.030380         0.615233         2.233671
 H         0.447337         0.848729         4.858754
 H         1.006207        -2.356045         1.851368
 H         0.458688        -2.737890         3.526417
 H        -1.700048        -1.111869         3.226703
 H        -1.209207        -1.324435         0.494878
 H        -1.813436         0.275283         1.113044
 H        -0.083290         1.080577        -1.354360
 H         1.324569         2.035176        -0.237350
 H         2.102655         0.486964         1.972751
 H         0.882891         1.747549         2.521901
