19
Iteration:  3128charge 0 multiplicity 1
 O         0.346055         0.100926         4.537560
 C         0.381519        -0.455744         3.193670
 C         0.045396        -1.974565         2.919534
 C        -0.975354        -0.887246         2.521492
 C        -0.920312        -0.433005         1.072304
 C         0.421984         0.272428         0.886145
 C         0.761161         1.149394        -0.254178
 O         1.332427        -0.154656        -0.104483
 C         1.140529         0.393084         2.198582
 H        -0.099153        -0.527532         5.152632
 H         0.468041        -2.550737         2.153545
 H        -0.191893        -2.591383         3.789121
 H        -1.863487        -0.677790         3.206004
 H        -1.006211        -1.322519         0.433019
 H        -1.668131         0.396017         0.855447
 H         0.051515         1.475724        -1.066180
 H         1.452976         1.976448        -0.079499
 H         2.153451        -0.044345         2.238332
 H         1.104002         1.387812         2.655977
