19
Iteration:  2962
 O         0.326459        -0.360264         4.544335
 C         0.345762        -0.276294         3.133820
 C         0.328949        -1.692998         2.669633
 C        -0.991515        -0.781073         2.509899
 C        -1.110589        -0.238776         1.099258
 C         0.345917         0.310718         0.930252
 C         0.918291         0.860216        -0.276573
 O         1.316298        -0.434347         0.153921
 C         0.918577         0.767115         2.246730
 H         1.263264        -0.285245         4.817912
 H         0.691111        -1.973813         1.677300
 H         0.281986        -2.472140         3.444895
 H        -1.926160        -1.024122         3.138643
 H        -1.395114        -0.867665         0.212002
 H        -1.913558         0.509806         1.147513
 H         0.554791         0.947060        -1.347589
 H         1.774631         1.557770        -0.332675
 H         2.000652         0.566773         2.347335
 H         0.822620         1.783035         2.699300
