19
Iteration:  3126charge 0 multiplicity 1
 O         0.342112         0.097678         4.521468
 C         0.356407        -0.463422         3.190869
 C         0.051441        -1.981816         2.941827
 C        -0.946276        -0.902559         2.520055
 C        -0.927019        -0.412203         1.081931
 C         0.412301         0.286082         0.879615
 C         0.745169         1.161189        -0.245027
 O         1.344832        -0.168917        -0.098510
 C         1.152745         0.389076         2.197072
 H        -0.120406        -0.555867         5.124906
 H         0.416020        -2.539337         2.129913
 H        -0.152596        -2.531050         3.814787
 H        -1.789507        -0.613808         3.098193
 H        -1.088994        -1.338775         0.410717
 H        -1.726402         0.403217         0.876479
 H         0.141357         1.475359        -1.083036
 H         1.403957         1.920013        -0.051980
 H         2.170601        -0.015234         2.219553
 H         1.133776         1.452101         2.616372
