19
Iteration:  3717
 O         0.395279        -0.068076         4.530371
 C         0.336873        -0.404134         3.144044
 C         0.417499        -1.777670         2.623814
 C        -0.859562        -0.987430         2.357467
 C        -1.108843        -0.205152         1.202654
 C         0.257808         0.425158         0.921917
 C         0.914739         0.857333        -0.284112
 O         1.281738        -0.463133         0.176208
 C         0.828961         0.741432         2.252560
 H         0.549596        -0.919963         5.017989
 H         1.092005        -2.111941         1.822545
 H         0.292114        -2.533341         3.486499
 H        -1.781303        -1.026750         3.005301
 H        -1.367305        -0.891688         0.277356
 H        -1.838117         0.622858         1.366874
 H         0.286600         0.726697        -1.164739
 H         1.597713         1.751839        -0.048141
 H         1.935480         0.809362         2.339866
 H         0.461306         1.700653         2.697145
