19
Iteration:  4856
 O         0.297566        -0.113358         4.537301
 C         0.371649        -0.366934         3.165499
 C         0.565558        -1.806162         2.867043
 C        -0.772742        -1.027190         2.487714
 C        -0.965556        -0.572445         1.120464
 C         0.281085         0.229759         0.874291
 C         0.637122         1.059459        -0.262202
 O         1.286617        -0.176887        -0.034284
 C         0.787258         0.753138         2.256001
 H         0.714041         0.699452         4.852241
 H         1.261531        -2.172582         2.073106
 H         0.442317        -2.470829         3.700920
 H        -1.615705        -1.604371         2.915725
 H        -1.232288        -1.382388         0.420366
 H        -1.832980         0.119003         1.083349
 H         0.108797         1.108050        -1.183330
 H         1.209729         2.014683        -0.023295
 H         1.876209         0.795898         2.300416
 H         0.377046         1.722927         2.431175
