19
Iteration:  3691charge 0 multiplicity 1
 O         0.332677        -0.190684         4.581644
 C         0.324008        -0.353517         3.238325
 C         0.325815        -1.761960         2.617690
 C        -0.920470        -0.909913         2.578785
 C        -1.070628        -0.253915         1.166251
 C         0.432154         0.268100         0.885161
 C         0.907834         0.928398        -0.375844
 O         1.296860        -0.419365         0.062112
 C         0.816383         0.783738         2.264482
 H         1.221901        -0.481612         4.948085
 H         0.735410        -1.967268         1.597966
 H         0.506093        -2.468755         3.386424
 H        -1.819889        -1.209961         3.060695
 H        -1.274596        -1.039421         0.438590
 H        -1.719444         0.663250         1.004980
 H         0.197264         0.870438        -1.149871
 H         1.677663         1.618887        -0.286197
 H         1.856441         1.004181         2.580251
 H         0.271769         1.777001         2.352033
