19
Iteration:  1614
 O         0.321251        -0.075579         4.626232
 C         0.347438        -0.484611         3.207379
 C         0.032780        -1.883362         2.866760
 C        -1.013015        -0.693349         2.532041
 C        -0.952860        -0.406417         1.031873
 C         0.512103         0.161185         0.890921
 C         0.804775         1.126956        -0.152495
 O         1.370944        -0.244048        -0.217446
 C         1.030632         0.505753         2.236950
 H         1.245943         0.157677         4.756632
 H         0.291668        -2.431439         2.004281
 H        -0.374317        -2.485462         3.704059
 H        -1.818694        -0.762925         3.166466
 H        -0.981476        -1.276274         0.359399
 H        -1.684176         0.360921         0.783432
 H         0.102859         1.266749        -0.940028
 H         1.594431         1.844928         0.211370
 H         2.250512         0.485076         2.248008
 H         0.665752         1.463400         2.526166
