19
Iteration:    74
 O         0.391482        -0.026652         4.489744
 C         0.350101        -0.452718         3.155447
 C         0.124047        -1.969729         2.751141
 C        -0.909952        -0.835140         2.400019
 C        -1.028741        -0.183595         1.090711
 C         0.371498         0.400292         0.936519
 C         0.872662         0.916775        -0.296796
 O         1.325011        -0.354111         0.158085
 C         0.996213         0.607947         2.316807
 H         0.943782        -0.619164         4.987474
 H         0.703556        -2.498025         2.047661
 H        -0.375049        -2.525542         3.524339
 H        -1.793103        -0.981082         2.972535
 H        -1.421522        -0.821535         0.196977
 H        -1.808700         0.657137         1.221677
 H         0.179190         0.638081        -1.187995
 H         1.524849         1.760955        -0.559813
 H         2.049564         0.499079         2.201038
 H         0.737695         1.604271         2.714653
