19
Iteration:  2133
 O         0.275087        -0.192842         4.627544
 C         0.268939        -0.359591         3.185757
 C         0.175444        -1.819972         2.669073
 C        -0.981207        -0.889378         2.509834
 C        -0.950980        -0.196921         1.183578
 C         0.444150         0.437575         0.911412
 C         0.818354         0.887670        -0.414346
 O         1.363461        -0.373559        -0.006743
 C         1.016769         0.633073         2.341074
 H         0.992205        -0.699660         5.029665
 H         0.833808        -2.057130         1.798914
 H         0.135167        -2.477097         3.580961
 H        -1.957154        -1.002175         3.023485
 H        -1.165540        -0.950767         0.396686
 H        -1.696659         0.574017         1.179346
 H         0.115378         0.910806        -1.284659
 H         1.579565         1.710658        -0.744254
 H         2.100461         0.545785         2.278843
 H         0.853918         1.620464         2.900930
