19
Iteration:  2351
 O         0.121985         0.128183         4.479392
 C         0.317213        -0.462584         3.229231
 C         0.206200        -1.976171         2.937201
 C        -0.901129        -0.902528         2.515551
 C        -0.964224        -0.281078         1.143344
 C         0.452197         0.252143         0.914081
 C         0.848176         1.193325        -0.157712
 O         1.246776        -0.266079        -0.233451
 C         1.180593         0.306437         2.215240
 H         0.866648        -0.174745         5.081188
 H         0.587314        -2.456760         1.994566
 H        -0.206180        -2.630709         3.729050
 H        -1.849598        -0.897949         3.103769
 H        -1.187056        -0.867507         0.261141
 H        -1.767823         0.436891         1.158653
 H         0.121946         1.538045        -0.893886
 H         1.758957         1.820206         0.004274
 H         2.248341        -0.018535         2.087706
 H         1.359483         1.331847         2.691527
