19
Iteration:  4628
 O         0.342750         0.035199         4.652232
 C         0.346427        -0.440857         3.219380
 C         0.434816        -1.887496         2.910040
 C        -0.904995        -1.065353         2.600357
 C        -0.943632        -0.530560         1.038330
 C         0.310852         0.327447         0.856810
 C         0.672729         1.135795        -0.324713
 O         1.284233        -0.160626        -0.203560
 C         1.003926         0.587628         2.282610
 H        -0.592666         0.255113         4.928395
 H         0.937345        -2.256632         2.046475
 H         0.657976        -2.681539         3.666131
 H        -1.830621        -1.217813         3.138093
 H        -1.107577        -1.430925         0.343556
 H        -1.880793         0.003186         0.955158
 H        -0.012455         1.252475        -1.233705
 H         1.437940         2.008020        -0.341957
 H         2.069482         0.340359         2.313666
 H         0.763023         1.645644         2.735658
