19
Iteration:  4849charge 0 multiplicity 1
 O         0.336812        -0.112442         4.573399
 C         0.371802        -0.361394         3.223011
 C         0.539673        -1.781035         2.802852
 C        -0.784180        -1.089229         2.515677
 C        -1.015884        -0.555847         1.090670
 C         0.255527         0.258880         0.933962
 C         0.651671         1.107248        -0.316388
 O         1.321899        -0.207424        -0.039110
 C         0.812321         0.715156         2.228217
 H         0.457672         0.812451         4.822316
 H         1.348283        -2.035846         2.170587
 H         0.320950        -2.463094         3.643052
 H        -1.645519        -1.533178         3.027015
 H        -1.048894        -1.444875         0.299827
 H        -1.945438         0.029134         1.179520
 H         0.207960         1.015728        -1.337553
 H         1.223454         2.038089        -0.065503
 H         1.874888         0.973320         2.164814
 H         0.207512         1.620483         2.537318
