19
Iteration:  1283
 O         0.199590        -0.036348         4.608884
 C         0.342096        -0.394280         3.206222
 C         0.092512        -1.865107         2.846810
 C        -0.997700        -0.736811         2.565932
 C        -0.863102        -0.418501         1.133145
 C         0.508038         0.257316         0.894777
 C         0.854930         1.102328        -0.225905
 O         1.234915        -0.281846        -0.254585
 C         1.160095         0.472769         2.265090
 H         0.697936        -0.815068         4.908035
 H         0.303957        -2.246705         1.841346
 H        -0.069188        -2.673294         3.556442
 H        -1.833047        -0.663997         3.196407
 H        -0.792658        -1.305442         0.564461
 H        -1.738635         0.178234         0.830777
 H         0.133956         1.372888        -1.098019
 H         1.505096         1.899066         0.036813
 H         2.237261         0.366653         2.276678
 H         0.946099         1.396535         2.706122
