19
Iteration:  1796charge 0 multiplicity 1
 O         0.286662        -0.226741         4.653202
 C         0.375549        -0.417531         3.257752
 C         0.164245        -1.769926         2.686576
 C        -0.949025        -0.724213         2.518146
 C        -1.012333        -0.253902         1.050261
 C         0.351465         0.326437         0.929328
 C         0.869167         0.906718        -0.361265
 O         1.368797        -0.368852        -0.027087
 C         0.970954         0.680846         2.296100
 H         0.860185        -0.889054         5.141588
 H         0.824637        -2.069573         1.901574
 H         0.192717        -2.531007         3.526325
 H        -1.869338        -0.999457         2.940132
 H        -1.158165        -1.052837         0.302993
 H        -1.649029         0.525957         0.981231
 H         0.255206         0.901661        -1.212005
 H         1.648638         1.726052        -0.293864
 H         2.017735         0.628127         2.242551
 H         0.655685         1.731426         2.658034
