19
Iteration:  2660
 O         0.334972         0.116641         4.585898
 C         0.220927        -0.449933         3.236763
 C        -0.001251        -1.975933         2.943028
 C        -0.984574        -0.831438         2.538341
 C        -0.784307        -0.412029         1.082680
 C         0.540660         0.259108         0.854680
 C         0.739242         1.181451        -0.241384
 O         1.305173        -0.187127        -0.310664
 C         1.121021         0.331813         2.354134
 H         0.682604        -0.633434         5.156242
 H         0.537584        -2.453865         2.109182
 H        -0.253500        -2.555050         3.778704
 H        -2.012998        -0.963619         2.958253
 H        -0.776694        -1.321885         0.436794
 H        -1.765216         0.211339         0.823544
 H        -0.009299         1.424604        -1.005487
 H         1.504724         1.934218        -0.104449
 H         2.253521         0.255760         2.392219
 H         0.887142         1.428509         2.549938
