19
Iteration:  4068charge 0 multiplicity 1
 O         0.306251        -0.051770         4.582768
 C         0.405479        -0.361717         3.201260
 C         0.523922        -1.812153         2.588937
 C        -0.845523        -0.996052         2.459610
 C        -1.125670        -0.284974         1.106594
 C         0.236189         0.419480         0.978135
 C         0.827828         0.837515        -0.375936
 O         1.252082        -0.403037         0.096224
 C         0.891208         0.771736         2.335683
 H         0.660758        -0.748908         5.100577
 H         1.100747        -1.982873         1.730267
 H         0.425989        -2.659831         3.308151
 H        -1.609379        -1.445766         3.200152
 H        -1.334342        -1.030697         0.297831
 H        -1.854005         0.482717         1.164203
 H         0.324239         0.945641        -1.357516
 H         1.556001         1.631032        -0.270622
 H         1.977375         0.985752         2.285568
 H         0.363712         1.639938         2.875063
