19
Iteration:   407
 O         0.520408         0.020881         4.453073
 C         0.306452        -0.450782         3.197795
 C         0.059977        -1.910641         2.812907
 C        -0.982970        -0.880660         2.477024
 C        -0.918971        -0.295695         1.079839
 C         0.431166         0.364181         0.931975
 C         0.747875         0.976791        -0.352866
 O         1.388736        -0.301614         0.069648
 C         0.925230         0.572034         2.320437
 H         0.083751        -0.510280         5.138304
 H         0.589659        -2.413648         1.965879
 H        -0.371654        -2.551876         3.605150
 H        -1.908676        -1.001827         3.102294
 H        -1.137336        -0.944018         0.163429
 H        -1.638224         0.508461         0.894020
 H         0.091340         0.825251        -1.098984
 H         1.506107         1.725793        -0.300230
 H         2.035662         0.320104         2.300301
 H         0.899105         1.462558         2.984628
