19
Iteration:  3824
 O         0.395906        -0.007746         4.598205
 C         0.319891        -0.414796         3.253016
 C         0.204735        -1.946267         2.920955
 C        -0.870718        -0.970992         2.435451
 C        -0.912891        -0.404908         1.041165
 C         0.412492         0.340948         0.921571
 C         0.670727         1.096066        -0.353424
 O         1.225581        -0.235563        -0.080767
 C         1.071570         0.501715         2.288721
 H        -0.197292         0.770920         4.843580
 H         0.968382        -2.182627         2.134402
 H         0.035457        -2.766761         3.785197
 H        -1.837224        -0.999678         2.999946
 H        -0.869303        -1.091513         0.123075
 H        -1.852935         0.171489         0.854228
 H        -0.008762         1.183911        -1.178447
 H         1.451540         1.890375        -0.291566
 H         2.197967         0.388105         2.280018
 H         0.930847         1.529224         2.807472
