19
Iteration:  3680
 O         0.338639        -0.236663         4.677858
 C         0.249388        -0.342061         3.165892
 C         0.324974        -1.739841         2.654818
 C        -0.962262        -0.862058         2.535482
 C        -0.963016        -0.296586         1.187810
 C         0.406882         0.346203         0.888959
 C         0.893664         0.924633        -0.408328
 O         1.306377        -0.418472         0.009816
 C         0.849853         0.724507         2.295397
 H         1.277749        -0.070693         4.804237
 H         0.950515        -2.019528         1.783972
 H         0.228985        -2.501322         3.388865
 H        -1.818695        -0.985929         3.143257
 H        -1.169724        -1.102031         0.483479
 H        -1.901168         0.329972         1.125637
 H         0.270442         0.931044        -1.279536
 H         1.532337         1.730544        -0.484806
 H         1.953923         0.877406         2.328329
 H         0.268616         1.651072         2.595617
