19
Iteration:  1059charge 0 multiplicity 1
 O         0.393004        -0.262612         4.623017
 C         0.245576        -0.372314         3.218468
 C         0.134942        -1.772908         2.750222
 C        -1.076295        -0.753506         2.477133
 C        -0.955667        -0.241745         1.112277
 C         0.483106         0.297392         0.948629
 C         0.942612         0.930599        -0.269540
 O         1.277420        -0.446442        -0.127316
 C         0.973069         0.701408         2.310143
 H         1.343703        -0.082592         4.676791
 H         0.735020        -2.177462         1.964865
 H         0.059976        -2.378831         3.665512
 H        -2.050829        -1.063235         2.856158
 H        -1.090849        -0.898604         0.230159
 H        -1.707036         0.537697         1.026923
 H         0.224535         1.262717        -1.080293
 H         1.755921         1.683592        -0.215171
 H         1.957235         0.680411         2.610970
 H         0.583309         1.726035         2.491850
