19
Iteration:  3973charge 0 multiplicity 1
 O         0.383176        -0.018763         4.546182
 C         0.272387        -0.417320         3.173704
 C         0.357001        -1.856293         2.898467
 C        -0.907794        -0.943377         2.523190
 C        -0.988974        -0.451054         1.156454
 C         0.312519         0.295241         0.876981
 C         0.706593         1.085336        -0.171410
 O         1.362286        -0.226559        -0.189312
 C         1.047365         0.541468         2.177753
 H        -0.536000         0.107088         4.896248
 H         0.874312        -2.211454         2.096536
 H         0.116447        -2.487596         3.763883
 H        -1.777059        -1.190591         3.200238
 H        -1.245392        -1.312020         0.390931
 H        -1.930600         0.243937         1.140037
 H         0.090881         1.360499        -1.015129
 H         1.480891         1.894508         0.000813
 H         2.113882         0.378310         2.313521
 H         0.815771         1.520262         2.598085
