19
Iteration:   535charge 0 multiplicity 1
 O         0.280124        -0.219327         4.596867
 C         0.301684        -0.363828         3.214549
 C         0.204806        -1.809257         2.694981
 C        -0.965559        -0.828140         2.532568
 C        -0.992067        -0.191125         1.141512
 C         0.405614         0.301395         0.880796
 C         0.843933         0.887486        -0.334126
 O         1.317136        -0.398786        -0.041009
 C         1.019399         0.653704         2.321518
 H         0.967470         0.470403         4.800665
 H         0.896588        -2.203851         1.956444
 H         0.064957        -2.575698         3.534908
 H        -1.732122        -1.038547         3.311119
 H        -1.203127        -0.849220         0.325452
 H        -1.732815         0.647731         1.177422
 H         0.444494         1.076794        -1.313471
 H         1.611020         1.721581        -0.247766
 H         2.105975         0.618685         2.285738
 H         0.710195         1.630961         2.580767
