19
Iteration:  2395
 O         0.115200         0.014319         4.615603
 C         0.328967        -0.486349         3.269048
 C         0.158252        -1.982200         2.935650
 C        -0.939416        -0.823786         2.473307
 C        -0.833199        -0.161358         1.055303
 C         0.511223         0.343158         0.939073
 C         0.739631         1.067980        -0.323844
 O         1.259230        -0.260980        -0.224901
 C         1.184725         0.323936         2.275204
 H         0.914176        -0.013230         5.225253
 H         0.942035        -2.402904         2.190999
 H        -0.355652        -2.642030         3.646239
 H        -1.860931        -1.248348         3.005692
 H        -1.242912        -0.881262         0.385528
 H        -1.537373         0.639745         1.002868
 H        -0.134951         1.130951        -0.947915
 H         1.366640         1.995478        -0.377608
 H         2.267205         0.045160         2.212951
 H         1.350881         1.374379         2.639964
