19
Iteration:  2025charge 0 multiplicity 1
 O        -0.015496         0.009338         4.536615
 C         0.385786        -0.424165         3.208055
 C         0.130084        -1.851646         2.953617
 C        -0.894555        -0.826541         2.540915
 C        -0.888658        -0.307940         1.113378
 C         0.565438         0.209522         0.914318
 C         0.733058         1.164410        -0.166793
 O         1.210672        -0.239181        -0.330833
 C         1.352464         0.270953         2.244486
 H         0.761794        -0.035216         5.167625
 H         0.819479        -2.367386         2.199548
 H        -0.030527        -2.554723         3.799377
 H        -1.956301        -0.787362         2.944842
 H        -1.287101        -0.984755         0.307371
 H        -1.720275         0.531150         1.015006
 H        -0.088874         1.358805        -0.740356
 H         1.498480         1.912476         0.112702
 H         2.310368        -0.178030         2.274062
 H         1.465789         1.393561         2.643736
