19
Iteration:   985charge 0 multiplicity 1
 O         0.148533         0.092409         4.525610
 C         0.248540        -0.428047         3.287779
 C         0.238582        -1.876687         2.905120
 C        -0.942547        -0.989922         2.407752
 C        -0.862609        -0.171719         1.143145
 C         0.567336         0.266438         0.905140
 C         0.825334         1.116116        -0.223800
 O         1.114085        -0.350048        -0.220898
 C         1.206820         0.365777         2.294593
 H         0.429242        -0.674177         5.123871
 H         0.986907        -2.276320         2.136722
 H        -0.012224        -2.632797         3.733968
 H        -1.903787        -1.213529         2.812044
 H        -1.283516        -0.683294         0.341480
 H        -1.376811         0.849528         1.298489
 H         0.045872         1.560802        -0.867528
 H         1.742999         1.659564        -0.358128
 H         2.286805         0.225189         2.226774
 H         1.004175         1.350387         2.757405
