19
Iteration:  4134
 O         0.380383        -0.043933         4.577822
 C         0.340020        -0.428711         3.201155
 C         0.434338        -1.844835         2.716826
 C        -0.863054        -0.912673         2.622383
 C        -0.988473        -0.347219         1.158132
 C         0.352136         0.241706         0.886918
 C         0.730975         0.982056        -0.392701
 O         1.323427        -0.236582         0.008361
 C         0.877556         0.618095         2.222000
 H        -0.377496        -0.313171         5.198193
 H         0.878273        -2.038280         1.809405
 H         0.258378        -2.672414         3.378404
 H        -1.751998        -1.299228         3.174264
 H        -1.365382        -1.109995         0.422964
 H        -1.747179         0.370208         1.022323
 H         0.074507         1.071998        -1.232760
 H         1.357978         1.902030        -0.276435
 H         1.966111         0.798440         2.250485
 H         0.365377         1.503548         2.624976
