19
Iteration:  1610
 O         0.331151        -0.077933         4.631548
 C         0.349981        -0.461377         3.191207
 C         0.015441        -1.835707         2.826128
 C        -1.013801        -0.732398         2.512689
 C        -0.954543        -0.413919         1.056818
 C         0.526345         0.144102         0.886736
 C         0.823043         1.095136        -0.144194
 O         1.363990        -0.250801        -0.248512
 C         1.021767         0.506351         2.293792
 H         1.281778         0.166248         4.811334
 H         0.359326        -2.440795         1.950974
 H        -0.273504        -2.381612         3.672428
 H        -1.871528        -0.688574         3.270895
 H        -0.929251        -1.281397         0.405605
 H        -1.695753         0.462032         0.775248
 H         0.113766         1.343952        -0.935990
 H         1.503082         1.813639         0.236132
 H         2.052408         0.528102         2.303484
 H         0.629391         1.531194         2.622284
