19
Iteration:  3120charge 0 multiplicity 1
 O         0.329559         0.077164         4.473320
 C         0.298097        -0.478284         3.177175
 C         0.065158        -1.973639         2.992052
 C        -0.872884        -0.921747         2.516640
 C        -0.956738        -0.373225         1.093962
 C         0.399899         0.304317         0.870041
 C         0.718778         1.181274        -0.215998
 O         1.367907        -0.201985        -0.104065
 C         1.171138         0.391604         2.223847
 H        -0.136145        -0.568013         5.030062
 H         0.430402        -2.542472         2.093521
 H        -0.107584        -2.496660         3.987215
 H        -1.847203        -0.541494         2.991439
 H        -1.226767        -1.119421         0.392556
 H        -1.802867         0.263039         1.003579
 H         0.206746         1.331967        -1.212777
 H         1.500775         1.999552         0.093008
 H         2.235335         0.114495         2.052978
 H         1.222166         1.423241         2.487939
