19
Iteration:  4592charge 0 multiplicity 1
 O         0.214150         0.115743         4.493225
 C         0.331025        -0.459800         3.178917
 C         0.552613        -1.931415         2.970666
 C        -0.864335        -1.023000         2.504694
 C        -0.980467        -0.437164         1.036913
 C         0.393669         0.278742         0.884999
 C         0.613219         1.155187        -0.194007
 O         1.229893        -0.257221        -0.148071
 C         1.024144         0.548823         2.268462
 H         0.568885        -0.575140         5.109026
 H         1.152211        -2.215987         2.051080
 H         0.404888        -2.464158         3.897325
 H        -1.767417        -1.321927         3.052613
 H        -1.138635        -1.027181         0.163787
 H        -1.738334         0.431677         1.063824
 H        -0.220505         1.390300        -0.848267
 H         1.331042         1.876002        -0.042717
 H         2.145853         0.473291         2.257445
 H         0.823188         1.548964         2.682273
