19
Iteration:  2669
 O         0.351551         0.164447         4.530302
 C         0.265178        -0.447304         3.229374
 C         0.003582        -1.972634         2.995374
 C        -1.001756        -0.905163         2.497401
 C        -0.869551        -0.445913         1.091443
 C         0.553849         0.215403         0.900851
 C         0.815168         1.207955        -0.224193
 O         1.297790        -0.130506        -0.237636
 C         1.104734         0.315614         2.219480
 H         0.522891        -0.532810         5.230788
 H         0.699897        -2.482499         2.271181
 H        -0.213888        -2.702493         3.775985
 H        -1.987626        -0.896686         2.783375
 H        -1.178059        -1.274991         0.428222
 H        -1.630850         0.426570         0.934271
 H        -0.040233         1.481006        -0.825573
 H         1.385542         2.007179        -0.042206
 H         2.143096        -0.063226         2.315874
 H         0.968900         1.316574         2.643542
