19
Iteration:  3605charge 0 multiplicity 1
 O         0.221465         0.113273         4.631583
 C         0.335499        -0.419333         3.287118
 C         0.220713        -1.872839         2.887256
 C        -0.896798        -0.967055         2.529158
 C        -0.987007        -0.382722         1.131583
 C         0.440829         0.202373         0.863732
 C         0.815233         1.142592        -0.204273
 O         1.275289        -0.234203        -0.322483
 C         1.161833         0.387328         2.210931
 H        -0.690438         0.140851         5.044377
 H         0.931374        -2.345714         2.182623
 H         0.009151        -2.662045         3.664816
 H        -1.713387        -1.305076         3.128161
 H        -1.411353        -1.116397         0.341903
 H        -1.688996         0.504532         1.165918
 H         0.199439         1.670703        -0.909265
 H         1.724745         1.799123        -0.057070
 H         2.224929         0.138852         2.297251
 H         0.895505         1.453755         2.446222
