19
Iteration:  1939
 O         0.397320        -0.007225         4.543192
 C         0.333261        -0.456933         3.187195
 C         0.018503        -1.874188         2.799528
 C        -1.073694        -0.841477         2.552560
 C        -1.006872        -0.392716         1.093463
 C         0.459353         0.247666         0.897505
 C         0.851617         1.036498        -0.249115
 O         1.470771        -0.182259        -0.108746
 C         0.983337         0.516535         2.258293
 H         0.797676        -0.680036         5.110275
 H         0.567877        -2.516773         1.969560
 H        -0.219299        -2.547720         3.671067
 H        -2.006914        -0.734338         3.212297
 H        -1.065299        -1.263323         0.419745
 H        -1.669543         0.534504         1.089870
 H         0.088269         1.115641        -1.015115
 H         1.559294         1.865328        -0.082616
 H         2.006264         0.318829         2.281917
 H         0.781804         1.546353         2.637265
