19
Iteration:  4607charge 0 multiplicity 1
 O         0.287057         0.105173         4.544052
 C         0.343936        -0.398065         3.259052
 C         0.398424        -1.878963         2.889140
 C        -0.761186        -1.082741         2.481927
 C        -0.955067        -0.488437         1.170350
 C         0.357342         0.254566         0.889095
 C         0.690941         1.144850        -0.246502
 O         1.210371        -0.157470        -0.155193
 C         0.993752         0.537537         2.210954
 H        -0.186175        -0.568192         5.049673
 H         1.215216        -2.261092         2.335995
 H         0.027798        -2.683305         3.566029
 H        -1.651600        -1.357614         3.029512
 H        -1.110202        -1.373353         0.421192
 H        -1.831593         0.119192         1.088111
 H         0.028655         1.240843        -1.171681
 H         1.439588         2.050777        -0.205791
 H         2.075024         0.405482         2.086073
 H         0.727612         1.635455         2.453325
