19
Iteration:  3353
 O         0.422553        -0.222076         4.619941
 C         0.243147        -0.390932         3.204401
 C         0.210290        -1.781446         2.648775
 C        -1.001620        -0.847500         2.513135
 C        -1.076368        -0.113001         1.136469
 C         0.386211         0.292378         0.848517
 C         0.973324         0.889184        -0.424681
 O         1.368147        -0.446249         0.114446
 C         0.867048         0.716023         2.331438
 H         1.373839        -0.421475         4.647081
 H         0.775328        -2.060485         1.784256
 H        -0.008061        -2.558541         3.382601
 H        -1.948853        -1.103850         3.112780
 H        -1.663127        -0.693927         0.428080
 H        -1.510132         0.858753         1.133339
 H         0.368650         0.888947        -1.411085
 H         1.740960         1.660618        -0.319418
 H         1.936606         0.674413         2.446308
 H         0.568107         1.687387         2.682137
