19
Iteration:   138charge 0 multiplicity 1
 O         0.077834        -0.192997         4.754093
 C         0.286230        -0.372467         3.314705
 C         0.392305        -1.764163         2.870508
 C        -0.842434        -0.860673         2.474643
 C        -0.994426        -0.107715         1.014374
 C         0.434024         0.275965         0.874474
 C         1.042450         0.991480        -0.319788
 O         1.018578        -0.461082        -0.199372
 C         1.064036         0.573639         2.203574
 H         0.979246        -0.182916         5.185147
 H         1.169385        -1.985254         2.155309
 H         0.294784        -2.500263         3.625968
 H        -1.770515        -1.034296         2.965803
 H        -1.384613        -0.792392         0.226672
 H        -1.574812         0.881461         1.275669
 H         0.278444         1.264297        -1.168738
 H         2.089489         1.419549        -0.272089
 H         2.137227         0.252694         2.164574
 H         1.138999         1.724101         2.501072
