19
Iteration:  4394
 O         0.183646        -0.163440         4.652957
 C         0.287058        -0.287814         3.173526
 C         0.502202        -1.844001         2.678648
 C        -0.781050        -0.993425         2.459241
 C        -1.008981        -0.287570         1.232027
 C         0.358573         0.332547         0.901099
 C         0.762912         0.917372        -0.344989
 O         1.188987        -0.363920        -0.042337
 C         1.029446         0.712212         2.298881
 H         0.594129         0.701910         4.715369
 H         1.088155        -1.999708         1.747162
 H         0.521124        -2.716752         3.434471
 H        -1.653932        -1.431565         2.907694
 H        -1.443550        -0.734684         0.410908
 H        -1.727505         0.553083         1.452515
 H         0.057323         0.730344        -1.087585
 H         1.514320         1.729373        -0.435671
 H         2.174931         0.685304         2.420162
 H         0.612909         1.743485         2.612876
