19
Iteration:  4851charge 0 multiplicity 1
 O         0.325698        -0.113127         4.557373
 C         0.375041        -0.365908         3.206160
 C         0.546363        -1.787103         2.821797
 C        -0.782473        -1.064687         2.509675
 C        -1.002962        -0.563816         1.092999
 C         0.258646         0.244279         0.931027
 C         0.650715         1.104220        -0.301377
 O         1.313042        -0.200881        -0.040360
 C         0.804103         0.724973         2.233455
 H         0.533733         0.786607         4.869615
 H         1.345131        -2.075576         2.144972
 H         0.332611        -2.472528         3.667102
 H        -1.617606        -1.565465         2.959215
 H        -1.094138        -1.402888         0.375831
 H        -1.915466         0.045840         1.182429
 H         0.198010         1.024747        -1.332244
 H         1.177497         1.993301        -0.053765
 H         1.907754         0.921394         2.211842
 H         0.229846         1.685488         2.503135
