19
Iteration:  4822
 O         0.449816        -0.027341         4.601786
 C         0.277526        -0.374231         3.230447
 C         0.562510        -1.844521         2.723743
 C        -0.825832        -1.105853         2.535235
 C        -0.938499        -0.532469         1.070703
 C         0.297374         0.341663         0.953958
 C         0.698188         1.007432        -0.420749
 O         1.263204        -0.209422         0.015532
 C         0.732691         0.784931         2.325755
 H        -0.438793         0.069390         4.994021
 H         1.194468        -1.992359         1.774876
 H         0.697877        -2.638010         3.464522
 H        -1.779566        -1.591255         2.812285
 H        -1.048447        -1.298743         0.345251
 H        -1.842739         0.095196         1.170048
 H         0.119468         0.881502        -1.339788
 H         1.330159         1.900937        -0.421564
 H         1.849827         0.755023         2.318596
 H         0.377933         1.711942         2.707164
