19
Iteration:  3776
 O         0.285196        -0.120443         4.608658
 C         0.373222        -0.379561         3.199651
 C         0.478389        -1.776777         2.704366
 C        -0.933015        -0.883917         2.515577
 C        -1.022476        -0.278878         1.177960
 C         0.423698         0.220771         0.901018
 C         0.804311         0.964474        -0.275513
 O         1.233887        -0.393863        -0.067119
 C         0.966092         0.693077         2.265190
 H        -0.509517        -0.466861         4.970367
 H         1.130548        -1.974596         1.801715
 H         0.253823        -2.575856         3.322010
 H        -1.818631        -1.131425         3.132495
 H        -1.525181        -0.887525         0.491933
 H        -1.493142         0.693492         1.131739
 H        -0.028729         1.062181        -1.106508
 H         1.508742         1.799417        -0.322186
 H         2.040712         0.738674         2.311567
 H         0.568863         1.678496         2.471065
