19
Iteration:  1759charge 0 multiplicity 1
 O         0.409902        -0.032465         4.506264
 C         0.294883        -0.443787         3.167857
 C         0.012561        -1.927699         2.869998
 C        -1.045784        -0.836258         2.498128
 C        -0.896353        -0.311882         1.069006
 C         0.508312         0.286525         0.916442
 C         0.790021         1.009583        -0.297072
 O         1.404856        -0.231259        -0.043387
 C         1.008862         0.538821         2.324015
 H         0.612686        -0.837352         5.051269
 H         0.618951        -2.353279         2.041114
 H        -0.083782        -2.407945         3.802959
 H        -2.112574        -1.093936         2.858118
 H        -1.225976        -0.971913         0.191613
 H        -1.715202         0.612347         1.095034
 H         0.049466         1.122227        -1.137769
 H         1.349740         1.897495        -0.251996
 H         2.124635         0.359594         2.341151
 H         0.793764         1.537344         2.744878
