19
Iteration:  2514charge 0 multiplicity 1
 O         0.147690        -0.331538         4.648786
 C         0.354811        -0.331692         3.251426
 C         0.333321        -1.689843         2.566908
 C        -0.876704        -0.811286         2.465106
 C        -1.000328        -0.093964         1.168630
 C         0.437900         0.328977         0.933238
 C         0.856326         0.834777        -0.419313
 O         1.261690        -0.501736         0.108173
 C         0.989649         0.708368         2.266674
 H         1.019024        -0.413441         5.025483
 H         0.905129        -1.839754         1.607782
 H         0.165936        -2.489087         3.297523
 H        -1.802726        -0.945550         3.152578
 H        -1.220364        -0.721915         0.248189
 H        -1.798062         0.782991         1.149768
 H         0.169762         0.819344        -1.213021
 H         1.589292         1.641486        -0.450351
 H         2.101723         0.820902         2.357603
 H         0.682478         1.742737         2.654728
