19
Iteration:  2253charge 0 multiplicity 1
 O         0.303483        -0.033683         4.525514
 C         0.289416        -0.481480         3.193635
 C         0.125184        -1.898267         2.769685
 C        -1.006679        -0.890781         2.519290
 C        -0.895730        -0.196391         1.196406
 C         0.486011         0.367442         0.944540
 C         0.750527         0.918957        -0.383671
 O         1.352913        -0.295801        -0.024409
 C         1.085207         0.581105         2.297431
 H         0.742758        -0.783036         5.016588
 H         0.586908        -2.135371         1.784833
 H        -0.086325        -2.740197         3.491752
 H        -1.966686        -1.049561         2.931593
 H        -1.223232        -0.864400         0.383664
 H        -1.510081         0.679970         1.131776
 H         0.001843         0.957930        -1.193695
 H         1.472985         1.820506        -0.459130
 H         2.141220         0.547368         2.461084
 H         0.842390         1.458983         2.712865
