19
Iteration:   496
 O         0.170710         0.011533         4.538152
 C         0.336983        -0.468984         3.152956
 C         0.344983        -1.927758         2.700342
 C        -0.830366        -0.968636         2.453216
 C        -1.024352        -0.066203         1.181926
 C         0.407463         0.440295         0.994000
 C         0.900365         0.881613        -0.403697
 O         1.139174        -0.458511         0.064797
 C         1.051577         0.629104         2.300309
 H         0.862489        -0.461199         4.988980
 H         1.118606        -2.098376         1.986792
 H         0.165926        -2.683253         3.457117
 H        -1.785506        -1.251248         2.950522
 H        -1.326710        -0.574185         0.167473
 H        -1.715457         0.768863         1.379686
 H         0.275213         0.963424        -1.276186
 H         1.761676         1.568415        -0.301473
 H         2.179962         0.528335         2.289431
 H         0.762903         1.580258         2.888251
