19
Iteration:  4207
 O         0.253462         0.142875         4.614266
 C         0.373911        -0.425926         3.254649
 C         0.416284        -1.923161         2.900623
 C        -0.867729        -1.042368         2.567883
 C        -0.969658        -0.525142         1.161773
 C         0.382675         0.244732         0.925196
 C         0.764281         1.142854        -0.242711
 O         1.236116        -0.132490        -0.297029
 C         1.066519         0.474388         2.208924
 H        -0.615063        -0.128429         4.921062
 H         0.873144        -2.212469         1.945288
 H         0.118308        -2.756155         3.677278
 H        -1.902846        -1.261683         3.022388
 H        -1.248443        -1.189552         0.402170
 H        -1.878839         0.188457         1.034850
 H        -0.094997         1.346290        -0.947483
 H         1.464028         2.003859        -0.167786
 H         2.158063         0.406885         2.103532
 H         0.816131         1.524401         2.340426
