19
Iteration:  1637
 O         0.275426        -0.025882         4.542457
 C         0.326485        -0.463816         3.184933
 C        -0.037562        -1.915734         2.976081
 C        -0.979114        -0.900337         2.505910
 C        -0.940934        -0.380169         1.101455
 C         0.443602         0.342868         0.875628
 C         0.824950         1.167306        -0.350293
 O         1.348203        -0.151243        -0.114489
 C         1.132077         0.356794         2.264478
 H         1.212562        -0.111768         4.885135
 H         0.606891        -2.490276         2.339395
 H        -0.226223        -2.392323         3.983209
 H        -1.789938        -0.676761         3.136875
 H        -0.947857        -1.199908         0.352156
 H        -1.719210         0.317023         0.967919
 H         0.132410         1.196328        -1.209126
 H         1.538326         1.967406        -0.080035
 H         2.207310        -0.129582         2.059688
 H         1.275416         1.301427         2.738281
