19
Iteration:  4985charge 0 multiplicity 1
 O         0.321977         0.091020         4.589883
 C         0.256103        -0.327525         3.207169
 C         0.585233        -1.851708         2.877503
 C        -0.724310        -1.211556         2.466154
 C        -0.919018        -0.652895         1.097533
 C         0.308204         0.283803         0.841302
 C         0.558183         1.127868        -0.325495
 O         1.295599        -0.139346        -0.120999
 C         0.821557         0.723974         2.339056
 H         0.191734        -0.736530         5.117659
 H         1.295108        -2.008959         2.050678
 H         0.723316        -2.568449         3.744843
 H        -1.723466        -1.472554         2.937282
 H        -0.927721        -1.479085         0.453686
 H        -1.955547        -0.213533         1.069986
 H        -0.178725         1.064691        -1.025393
 H         1.151433         2.024620        -0.110994
 H         1.957851         0.753278         2.297154
 H         0.464180         1.743387         2.644163
