19
Iteration:  1138
 O         0.183115        -0.137404         4.601247
 C         0.354402        -0.396173         3.197262
 C         0.281460        -1.806954         2.647762
 C        -0.855550        -0.883638         2.400278
 C        -1.000083        -0.007080         1.165735
 C         0.421315         0.343108         0.984614
 C         0.912602         0.856867        -0.366024
 O         1.161828        -0.473081         0.041233
 C         1.050461         0.638692         2.310219
 H         0.756053        -0.809024         5.018700
 H         1.104567        -2.049938         1.845578
 H         0.015787        -2.696204         3.371097
 H        -1.697815        -1.176884         3.038311
 H        -1.255786        -0.596439         0.320308
 H        -1.682183         0.886317         1.302694
 H         0.179423         0.938171        -1.182291
 H         1.867613         1.511183        -0.423726
 H         2.103770         0.663915         2.438011
 H         0.613867         1.579546         2.641624
