19
Iteration:  3365
 O         0.340099        -0.300412         4.603190
 C         0.357232        -0.331756         3.165863
 C         0.185299        -1.766038         2.661637
 C        -0.961228        -0.785018         2.491924
 C        -0.996795        -0.181653         1.131494
 C         0.391309         0.290146         0.883947
 C         0.954623         0.911167        -0.286517
 O         1.263982        -0.450047         0.084544
 C         0.911108         0.726815         2.246565
 H         1.193538        -0.108858         5.107602
 H         0.699049        -2.275805         1.857913
 H         0.099639        -2.397956         3.495570
 H        -1.918710        -0.946823         3.153582
 H        -1.375740        -0.696331         0.218909
 H        -1.586506         0.633955         1.398844
 H         0.360510         0.803465        -1.305189
 H         1.816984         1.559752        -0.302995
 H         1.983365         0.774637         2.142113
 H         0.469353         1.710357         2.421059
