19
Iteration:  4345
 O         0.300733         0.001787         4.641419
 C         0.327025        -0.399692         3.293557
 C         0.280479        -1.972463         2.813172
 C        -0.839890        -1.060440         2.549870
 C        -0.896601        -0.435062         1.136441
 C         0.302978         0.388624         0.837828
 C         0.778226         1.066056        -0.324398
 O         1.264123        -0.243826        -0.132293
 C         0.903087         0.655302         2.238224
 H         1.189869         0.470307         4.609802
 H         0.920571        -2.255515         2.019981
 H         0.214991        -2.765273         3.585007
 H        -1.736595        -1.207164         3.168628
 H        -1.043744        -1.200453         0.257450
 H        -1.758889         0.220116         0.971331
 H        -0.001393         1.320514        -1.116288
 H         1.587737         1.731110        -0.127451
 H         1.932505         0.372877         2.083781
 H         0.895164         1.703460         2.593866
