19
Iteration:    30
 O         0.428567        -0.249895         4.656639
 C         0.252578        -0.303735         3.252176
 C         0.094739        -1.750425         2.651689
 C        -0.967259        -0.715684         2.570717
 C        -0.997924        -0.382955         1.080798
 C         0.454815         0.190477         0.883649
 C         0.959819         0.951492        -0.298628
 O         1.332790        -0.366080        -0.052583
 C         0.861672         0.734169         2.276598
 H         1.311420        -0.595971         4.706646
 H         0.608725        -1.984757         1.777319
 H        -0.038800        -2.397761         3.539084
 H        -1.872372        -0.832634         3.128839
 H        -1.324349        -1.325638         0.522809
 H        -1.765197         0.343384         0.716329
 H         0.308309         1.453300        -1.064654
 H         1.889153         1.507804        -0.142495
 H         1.932152         0.748649         2.352606
 H         0.377875         1.677390         2.524387
