19
Iteration:  1267
 O         0.294045        -0.146997         4.657956
 C         0.309485        -0.364795         3.279456
 C         0.028811        -1.776463         2.854662
 C        -0.959274        -0.719414         2.553262
 C        -0.936605        -0.415980         0.998308
 C         0.513273         0.179683         0.881869
 C         0.792994         1.095261        -0.229422
 O         1.309879        -0.265834        -0.239526
 C         1.116720         0.528960         2.282732
 H         0.651917        -0.895680         5.225838
 H         0.774546        -2.286421         2.099305
 H        -0.107060        -2.378100         3.782349
 H        -1.966956        -0.683288         3.083536
 H        -1.049413        -1.387207         0.392954
 H        -1.716407         0.292464         0.609241
 H         0.055260         1.358248        -0.908418
 H         1.705186         1.775341        -0.212526
 H         2.184319         0.181153         2.182286
 H         0.928326         1.729311         2.323519
