19
Iteration:  3815
 O         0.383731        -0.039983         4.596842
 C         0.282770        -0.470440         3.287847
 C         0.269564        -1.865338         2.866956
 C        -0.917643        -0.972469         2.494570
 C        -0.949522        -0.388036         1.101638
 C         0.416004         0.336233         0.894576
 C         0.715797         1.058905        -0.367973
 O         1.257070        -0.225716        -0.097990
 C         1.101277         0.591711         2.267736
 H        -0.499155         0.407315         4.821875
 H         0.978273        -2.394061         2.244690
 H        -0.070152        -2.691676         3.599751
 H        -1.906460        -1.063871         2.954819
 H        -0.999375        -1.341079         0.415705
 H        -1.853162         0.291870         1.073287
 H        -0.001530         1.204074        -1.121071
 H         1.509736         1.808567        -0.414857
 H         2.160618         0.278139         2.100366
 H         0.925867         1.691397         2.526794
