19
Iteration:   726
 O         0.491729        -0.070011         4.582398
 C         0.217126        -0.403274         3.159678
 C         0.033604        -1.830819         2.780754
 C        -1.022332        -0.811892         2.464848
 C        -0.979080        -0.246727         1.057708
 C         0.399533         0.308624         0.916626
 C         0.881172         0.980494        -0.267185
 O         1.401197        -0.376292        -0.012320
 C         0.959587         0.577065         2.316274
 H         1.129234        -0.743635         4.770817
 H         0.818760        -2.262727         2.085265
 H        -0.217423        -2.594680         3.594321
 H        -1.989600        -1.136604         2.955854
 H        -1.310667        -0.957220         0.241365
 H        -1.548553         0.638636         1.025632
 H         0.131418         0.841297        -1.090872
 H         1.570438         1.774387        -0.017725
 H         2.052875         0.614751         2.161766
 H         0.713801         1.512161         2.734347
