19
Iteration:  4314charge 0 multiplicity 1
 O         0.329037        -0.006658         4.540964
 C         0.342692        -0.374949         3.197735
 C         0.264761        -1.821917         2.939659
 C        -0.868776        -0.927973         2.533886
 C        -0.955299        -0.546100         1.029279
 C         0.404107         0.189598         0.904262
 C         0.625602         1.095398        -0.256282
 O         1.323886        -0.141221        -0.153615
 C         0.978660         0.556864         2.282171
 H         0.894918        -0.646763         4.949100
 H         1.056189        -2.215244         2.322298
 H         0.108007        -2.599688         3.693442
 H        -1.770161        -0.941907         3.185837
 H        -1.003111        -1.449022         0.378647
 H        -1.692103         0.259588         0.807333
 H        -0.212276         1.315445        -0.931673
 H         1.261737         1.914739        -0.235884
 H         2.106397         0.430429         2.265522
 H         0.810054         1.678630         2.519514
