19
Iteration:  2925
 O         0.221088        -0.059830         4.605413
 C         0.356863        -0.431668         3.186069
 C         0.338271        -1.882799         2.652148
 C        -0.843833        -0.982113         2.404152
 C        -1.015655        -0.127741         1.137297
 C         0.406820         0.427741         0.988256
 C         0.917804         0.874584        -0.328297
 O         1.183278        -0.461048        -0.026189
 C         0.952329         0.741563         2.400061
 H         0.944239        -0.412959         5.200951
 H         0.806891        -2.172610         1.696236
 H         0.110125        -2.774213         3.234949
 H        -1.723797        -1.248877         2.880873
 H        -1.417698        -0.634131         0.210113
 H        -1.612274         0.785320         1.473493
 H         0.264088         0.848985        -1.128238
 H         1.826758         1.474011        -0.326024
 H         2.055469         0.729051         2.401201
 H         0.427989         1.726261         2.541135
