19
Iteration:  1031charge 0 multiplicity 1
 O         0.155729        -0.052617         4.597213
 C         0.376114        -0.471335         3.227229
 C         0.150032        -1.905105         2.736864
 C        -0.909482        -0.795176         2.518765
 C        -1.015779        -0.231097         1.166730
 C         0.433101         0.337107         0.879935
 C         0.914744         0.984263        -0.321697
 O         1.252215        -0.330918        -0.032454
 C         1.115117         0.499784         2.221363
 H         1.030080        -0.322459         4.996202
 H         0.813326        -2.168019         1.868736
 H         0.026374        -2.730456         3.534072
 H        -1.720867        -0.739595         3.205015
 H        -1.220297        -0.793983         0.274653
 H        -1.766301         0.602552         1.287967
 H         0.257690         1.095154        -1.162178
 H         1.655307         1.806497        -0.296413
 H         2.217774         0.238134         2.349509
 H         0.912840         1.549563         2.481820
