19
Iteration:  2807charge 0 multiplicity 1
 O         0.419011         0.039994         4.580998
 C         0.218737        -0.458271         3.289113
 C        -0.016454        -1.928686         2.969162
 C        -1.035386        -0.865041         2.517418
 C        -0.875416        -0.515164         0.995978
 C         0.439247         0.234374         0.856500
 C         0.707128         1.169667        -0.222205
 O         1.376687        -0.033646        -0.145994
 C         1.113075         0.278710         2.246798
 H         1.034838         0.758391         4.453428
 H         0.673621        -2.499412         2.279890
 H        -0.129526        -2.421938         3.927759
 H        -1.959519        -0.686146         2.882223
 H        -0.860699        -1.429819         0.339915
 H        -1.563492         0.197791         0.609500
 H         0.236811         1.246184        -1.216841
 H         1.474002         2.001682         0.033387
 H         2.090356        -0.155137         2.095739
 H         1.166524         1.329044         2.529895
