19
Iteration:   103charge 0 multiplicity 1
 O         0.139749        -0.020381         4.553265
 C         0.320636        -0.409313         3.222854
 C         0.318355        -1.850575         2.658849
 C        -0.925347        -0.902094         2.509417
 C        -0.973887        -0.106866         1.192516
 C         0.473339         0.352618         0.956702
 C         0.900370         0.868004        -0.290279
 O         1.186755        -0.458754        -0.118069
 C         1.081909         0.593053         2.348178
 H         0.547906        -0.714193         5.140118
 H         0.933372        -1.935414         1.754954
 H         0.323748        -2.682701         3.437351
 H        -1.780265        -0.987631         3.177102
 H        -1.430058        -0.551097         0.342090
 H        -1.673312         0.791173         1.363217
 H         0.087372         1.101485        -0.998377
 H         1.808788         1.564158        -0.580532
 H         2.175583         0.258499         2.261759
 H         0.938237         1.704568         2.683915
