19
Iteration:   975charge 0 multiplicity 1
 O         0.146678         0.078663         4.593570
 C         0.307838        -0.469944         3.285536
 C         0.215046        -1.875831         2.897915
 C        -0.900630        -0.952869         2.468168
 C        -0.900974        -0.194894         1.110499
 C         0.542369         0.250845         0.895711
 C         0.894950         1.146354        -0.222877
 O         1.121512        -0.368368        -0.336388
 C         1.133719         0.420099         2.311129
 H         0.414692        -0.569887         5.283920
 H         0.995443        -2.411156         2.281889
 H        -0.234458        -2.588739         3.689120
 H        -1.806866        -1.175230         2.943650
 H        -1.151752        -0.659570         0.202900
 H        -1.569698         0.742417         1.175929
 H         0.027127         1.394267        -0.775757
 H         1.712228         1.807191        -0.058571
 H         2.220085         0.119245         2.468972
 H         1.094987         1.517659         2.433496
