19
Iteration:  3183charge 0 multiplicity 1
 O         0.305424        -0.034971         4.585789
 C         0.342494        -0.358039         3.264588
 C         0.084734        -1.822352         2.992981
 C        -0.968491        -0.899608         2.447779
 C        -0.954475        -0.409361         1.076570
 C         0.452002         0.223963         0.873231
 C         0.775597         1.182197        -0.218103
 O         1.314654        -0.224132        -0.246308
 C         1.170634         0.431321         2.224229
 H         0.399115        -0.728375         5.223147
 H         0.688389        -2.386008         2.322023
 H        -0.179271        -2.500764         3.822913
 H        -2.033946        -1.033638         2.908312
 H        -1.143293        -1.257221         0.349953
 H        -1.800002         0.378017         0.907501
 H        -0.055206         1.323506        -0.924496
 H         1.663440         1.816398        -0.087715
 H         2.278956         0.305307         2.341453
 H         0.943122         1.482965         2.486660
