19
Iteration:  1408charge 0 multiplicity 1
 O         0.399450        -0.134122         4.598323
 C         0.211551        -0.365681         3.265698
 C         0.091470        -1.764671         2.889425
 C        -1.057034        -0.886414         2.464263
 C        -0.911344        -0.274186         1.100461
 C         0.468010         0.318997         0.923667
 C         0.853020         1.002418        -0.346284
 O         1.383034        -0.290251        -0.131007
 C         1.001441         0.545750         2.274599
 H         0.542111        -0.998938         5.058815
 H         0.663700        -2.272770         2.089050
 H        -0.193891        -2.505672         3.618275
 H        -1.953576        -0.927076         3.078551
 H        -1.187019        -0.886367         0.125260
 H        -1.738628         0.469075         1.073011
 H         0.168796         1.003327        -1.192797
 H         1.686773         1.830640        -0.334916
 H         2.027574         0.063508         2.179143
 H         1.091529         1.529848         2.692019
