19
Iteration:  3961
 O         0.331720         0.043912         4.584396
 C         0.383551        -0.377819         3.235683
 C         0.279967        -1.914404         2.890640
 C        -0.904592        -1.026206         2.611297
 C        -1.035588        -0.420883         1.135530
 C         0.372610         0.188991         0.869941
 C         0.738215         1.169083        -0.231478
 O         1.346609        -0.175911        -0.197030
 C         1.051597         0.490659         2.165861
 H        -0.523124        -0.136302         4.935348
 H         0.898806        -2.330770         2.208996
 H         0.194958        -2.571668         3.731166
 H        -1.909806        -1.247084         3.131615
 H        -1.105976        -1.195241         0.219826
 H        -1.840955         0.431076         0.972181
 H         0.037367         1.258372        -1.064681
 H         1.262825         2.068955         0.134846
 H         2.112223         0.348972         1.852610
 H         0.909775         1.600650         2.274739
