19
Iteration:  3624
 O         0.280955         0.025547         4.534813
 C         0.335286        -0.448586         3.192071
 C         0.244915        -1.937333         2.892327
 C        -0.934053        -0.961919         2.530103
 C        -0.957760        -0.294325         1.154718
 C         0.472220         0.244660         0.908526
 C         0.809314         1.080077        -0.273196
 O         1.299878        -0.253589        -0.193243
 C         1.038978         0.487556         2.312420
 H        -0.375270         0.746315         4.469885
 H         0.786492        -2.224342         2.055533
 H         0.245777        -2.741654         3.644622
 H        -1.927749        -1.037550         3.004327
 H        -1.261178        -0.959256         0.381681
 H        -1.768420         0.494984         1.269686
 H        -0.033388         1.054957        -0.968258
 H         1.358992         1.925547        -0.104925
 H         2.106945         0.204706         2.260962
 H         0.984122         1.564390         2.639426
