19
Iteration:  4855charge 0 multiplicity 1
 O         0.303773        -0.113547         4.539342
 C         0.373766        -0.368369         3.172770
 C         0.560271        -1.802037         2.860333
 C        -0.774736        -1.030938         2.491683
 C        -0.973733        -0.573986         1.112139
 C         0.274947         0.230350         0.889629
 C         0.640394         1.070774        -0.271141
 O         1.291975        -0.182055        -0.036185
 C         0.789355         0.748463         2.251490
 H         0.676123         0.721328         4.872032
 H         1.295513        -2.158425         2.077176
 H         0.415390        -2.469690         3.688697
 H        -1.612757        -1.606595         2.911540
 H        -1.200675        -1.356179         0.445007
 H        -1.851514         0.100549         1.111213
 H         0.141650         1.086888        -1.212847
 H         1.191646         2.004048        -0.028668
 H         1.892127         0.818447         2.288412
 H         0.345792         1.719322         2.438623
