19
Iteration:  2165charge 0 multiplicity 1
 O         0.239624        -0.141496         4.579278
 C         0.324462        -0.442598         3.138038
 C         0.318697        -1.858626         2.603105
 C        -0.868348        -0.873387         2.367995
 C        -1.014509        -0.041387         1.174452
 C         0.376824         0.418309         0.956908
 C         0.845142         0.903414        -0.293741
 O         1.264565        -0.503708         0.133209
 C         0.965579         0.632876         2.294192
 H         1.130548         0.124965         4.956451
 H         1.111547        -2.195355         1.896316
 H         0.144927        -2.550919         3.481633
 H        -1.740350        -1.216855         2.931522
 H        -1.582720        -0.490309         0.360095
 H        -1.630955         0.795336         1.301517
 H         0.117088         0.776461        -1.143789
 H         1.850738         1.500767        -0.482554
 H         2.055883         0.672695         2.309342
 H         0.603748         1.459118         2.826995
