19
Iteration:   394charge 0 multiplicity 1
 O         0.535177         0.037522         4.529083
 C         0.213450        -0.429711         3.151524
 C         0.056424        -1.871918         2.833136
 C        -1.049076        -0.885845         2.431475
 C        -1.004975        -0.289910         1.051740
 C         0.427961         0.289097         0.966745
 C         0.783467         0.964232        -0.304011
 O         1.413017        -0.250520         0.039466
 C         1.077249         0.488870         2.302830
 H         0.256465        -0.726243         5.119831
 H         0.834083        -2.375529         2.119537
 H        -0.042977        -2.545175         3.696959
 H        -2.040540        -0.898898         2.858687
 H        -1.127024        -1.121855         0.362834
 H        -1.785887         0.458406         1.001994
 H        -0.007272         0.930095        -1.068367
 H         1.294577         1.991697        -0.484817
 H         2.226845         0.372911         2.344681
 H         0.687288         1.575573         2.477237
