19
Iteration:  2632charge 0 multiplicity 1
 O         0.178758        -0.188591         4.683683
 C         0.357163        -0.365044         3.213135
 C         0.032838        -1.814906         2.948388
 C        -0.940820        -0.704264         2.479632
 C        -0.842795        -0.460627         1.031938
 C         0.491333         0.278325         0.872840
 C         0.738262         1.096316        -0.303883
 O         1.274879        -0.236313        -0.194866
 C         1.204508         0.488981         2.282291
 H         1.058711        -0.505654         5.010602
 H         0.508447        -2.276539         2.095582
 H        -0.099713        -2.321465         3.943874
 H        -1.987358        -0.695163         2.982067
 H        -0.891436        -1.342102         0.383940
 H        -1.689196         0.088501         0.863026
 H        -0.130596         1.211490        -0.961541
 H         1.647072         1.832679        -0.233728
 H         2.241398         0.465553         2.078260
 H         1.101628         1.541079         2.448916
