19
Iteration:  2870
 O         0.101148        -0.028263         4.646559
 C         0.395257        -0.440756         3.244360
 C         0.220666        -1.851884         2.848780
 C        -0.903080        -0.904761         2.502948
 C        -1.009370        -0.333430         1.176461
 C         0.383667         0.373129         0.905970
 C         0.831097         1.094982        -0.347779
 O         1.311046        -0.301195        -0.215652
 C         1.130483         0.461665         2.252018
 H         0.576655        -0.621219         5.273788
 H         0.971637        -2.109774         2.093553
 H         0.154241        -2.501607         3.671353
 H        -1.654446        -0.955397         3.204153
 H        -1.158628        -1.179212         0.435773
 H        -1.916315         0.388852         1.163352
 H         0.394974         1.353575        -1.226560
 H         1.646250         1.765763        -0.362416
 H         2.216043         0.176485         2.145306
 H         1.088296         1.593853         2.435802
