19
Iteration:   682
 O         0.247979         0.034593         4.531672
 C         0.359047        -0.447793         3.256166
 C         0.137053        -1.918574         2.849362
 C        -0.932382        -0.851020         2.510309
 C        -0.953741        -0.233741         1.150536
 C         0.394407         0.347643         0.919801
 C         0.930756         1.041078        -0.273847
 O         1.222545        -0.330280        -0.162763
 C         1.152730         0.433025         2.246449
 H        -0.193651        -0.517499         5.155525
 H         0.660642        -2.390842         2.016579
 H        -0.066826        -2.649755         3.709049
 H        -1.968748        -0.984849         2.930667
 H        -1.200500        -0.941418         0.318191
 H        -1.711213         0.489303         1.165637
 H         0.358258         1.378253        -1.178724
 H         1.815017         1.582597        -0.006410
 H         2.228308         0.281441         2.320820
 H         1.005033         1.465565         2.481082
