19
Iteration:  3810
 O         0.355699        -0.065306         4.619331
 C         0.298967        -0.446667         3.251830
 C         0.299532        -1.839735         2.839657
 C        -0.935770        -0.964967         2.545448
 C        -0.962022        -0.389469         1.147382
 C         0.397755         0.342073         0.894399
 C         0.765886         1.051518        -0.363092
 O         1.284852        -0.242002        -0.131502
 C         1.076920         0.607461         2.244268
 H        -0.558387         0.134651         4.779520
 H         0.967944        -2.348563         2.093494
 H        -0.127837        -2.505825         3.655411
 H        -1.903746        -1.280314         3.018418
 H        -1.192431        -1.235687         0.552324
 H        -1.738976         0.360630         1.046065
 H        -0.120843         1.047341        -1.108914
 H         1.527583         1.856054        -0.408755
 H         2.124658         0.319183         2.114060
 H         0.996373         1.673774         2.461411
