19
Iteration:  1831
 O         0.234824        -0.134866         4.502806
 C         0.260722        -0.389249         3.183189
 C         0.358765        -1.808621         2.606395
 C        -0.911130        -1.018999         2.405223
 C        -0.989316        -0.090777         1.187848
 C         0.383762         0.450915         0.954335
 C         1.000569         0.854425        -0.275663
 O         1.124350        -0.475254         0.076296
 C         0.963170         0.682470         2.371120
 H         1.097780        -0.151076         4.998045
 H         1.093864        -1.991166         1.744957
 H         0.475669        -2.439965         3.524563
 H        -1.867123        -1.304303         2.871857
 H        -1.512921        -0.494782         0.336507
 H        -1.622789         0.687436         1.372942
 H         0.398375         1.030487        -1.202909
 H         2.013668         1.384009        -0.374217
 H         2.117956         0.582915         2.301219
 H         0.753466         1.711786         2.699930
