19
Iteration:  1641
 O         0.265004        -0.000115         4.546552
 C         0.317434        -0.485562         3.178253
 C        -0.010065        -1.900929         2.985357
 C        -0.990411        -0.921562         2.494890
 C        -0.927576        -0.380815         1.110183
 C         0.454168         0.367627         0.915835
 C         0.823612         1.148932        -0.354734
 O         1.343960        -0.143449        -0.140931
 C         1.161738         0.342763         2.273708
 H         1.147380        -0.211097         4.846447
 H         0.551619        -2.589694         2.252567
 H        -0.250446        -2.286888         3.955693
 H        -1.878515        -0.754305         3.243816
 H        -1.016988        -1.083379         0.234290
 H        -1.848120         0.243276         0.983594
 H         0.159544         1.228330        -1.285926
 H         1.509546         1.965228        -0.159746
 H         2.044431        -0.164126         2.134903
 H         1.396246         1.335917         2.782799
