19
Iteration:   632charge 0 multiplicity 1
 O         0.254326         0.024309         4.614451
 C         0.319876        -0.388934         3.296118
 C         0.156012        -1.887337         2.820191
 C        -0.978794        -0.918062         2.517862
 C        -0.952298        -0.201715         1.125313
 C         0.512156         0.292688         0.933056
 C         0.816972         1.041977        -0.257283
 O         1.280516        -0.312740        -0.272932
 C         1.162869         0.360285         2.259647
 H        -0.696971         0.014601         4.914858
 H         0.907211        -2.386986         2.183210
 H        -0.054370        -2.655811         3.585067
 H        -1.913430        -0.900594         3.076468
 H        -1.284605        -0.892749         0.308766
 H        -1.457813         0.847672         1.100980
 H        -0.053998         1.204284        -0.923068
 H         1.668144         1.814784        -0.313394
 H         2.183692        -0.020470         2.210670
 H         1.216155         1.427477         2.773105
