19
Iteration:  3132charge 0 multiplicity 1
 O         0.356531         0.104345         4.558691
 C         0.401654        -0.454477         3.202696
 C         0.029382        -1.947017         2.891535
 C        -1.022266        -0.856269         2.538936
 C        -0.912207        -0.461561         1.060772
 C         0.444045         0.249128         0.900639
 C         0.787389         1.142207        -0.268918
 O         1.311547        -0.134781        -0.128406
 C         1.121803         0.392397         2.219177
 H        -0.056503        -0.495452         5.181244
 H         0.621178        -2.582243         2.114772
 H        -0.255229        -2.654695         3.730790
 H        -1.896955        -0.834568         3.258637
 H        -0.891112        -1.301708         0.391175
 H        -1.594944         0.295200         0.811425
 H        -0.055190         1.361886        -0.986830
 H         1.529977         2.031600        -0.117288
 H         2.142282        -0.017042         2.194562
 H         1.083821         1.348220         2.717365
