19
Iteration:    86
 O         0.265714         0.032942         4.502055
 C         0.366401        -0.505663         3.174460
 C         0.170514        -1.900103         2.685927
 C        -0.887718        -0.905800         2.446532
 C        -0.968895        -0.110321         1.162804
 C         0.441443         0.367578         0.953573
 C         0.811309         0.963635        -0.373298
 O         1.250798        -0.430818         0.141229
 C         1.084258         0.573932         2.283388
 H         0.670895        -0.617017         5.145907
 H         0.747982        -2.260503         1.857207
 H        -0.108018        -2.663624         3.358492
 H        -1.815764        -1.049358         2.978565
 H        -1.305642        -0.766754         0.278338
 H        -1.665743         0.729356         1.291521
 H         0.121078         0.883661        -1.263041
 H         1.547013         1.696651        -0.336263
 H         2.134007         0.607540         2.345173
 H         0.711279         1.432709         2.778624
