19
Iteration:   481
 O         0.232211        -0.001644         4.566354
 C         0.304304        -0.409986         3.281307
 C         0.397774        -1.736666         2.637105
 C        -0.875848        -0.945873         2.380981
 C        -0.985922        -0.138118         1.165419
 C         0.379273         0.374615         0.909422
 C         0.920946         0.917077        -0.314522
 O         1.130036        -0.501224        -0.005097
 C         1.019966         0.570301         2.379588
 H         0.463270        -0.656584         5.256926
 H         1.004420        -1.967329         1.733664
 H         0.140682        -2.617058         3.312156
 H        -1.754005        -1.350444         2.952769
 H        -1.497820        -0.606275         0.365820
 H        -1.719440         0.619155         1.419744
 H         0.077304         0.981443        -1.047933
 H         2.023391         1.428698        -0.387417
 H         2.131327         0.395807         2.264769
 H         0.910515         1.667130         2.604003
