19
Iteration:  2189charge 0 multiplicity 1
 O         0.198743        -0.166085         4.536322
 C         0.303916        -0.365565         3.138979
 C         0.395840        -1.842976         2.588660
 C        -0.912908        -0.909406         2.508625
 C        -1.069411        -0.159249         1.212415
 C         0.362942         0.362435         0.951592
 C         1.107978         0.862832        -0.310973
 O         1.071806        -0.450764         0.055493
 C         1.023742         0.730173         2.303592
 H         1.022843         0.020644         4.992497
 H         0.900440        -1.974046         1.591610
 H         0.535275        -2.736056         3.295209
 H        -1.769151        -1.148978         3.055186
 H        -1.623023        -0.661365         0.419877
 H        -1.681403         0.696846         1.363390
 H         0.492092         1.167023        -1.168576
 H         2.142846         1.338432        -0.053618
 H         2.075892         0.774387         2.295425
 H         0.524447         1.668146         2.751450
