19
Iteration:  4015charge 0 multiplicity 1
 O         0.318657        -0.188829         4.686360
 C         0.335805        -0.382293         3.259170
 C         0.380705        -1.827023         2.756760
 C        -0.805093        -0.955547         2.435409
 C        -0.943184        -0.318111         1.136819
 C         0.326595         0.395550         0.949423
 C         0.739340         0.936717        -0.424058
 O         1.280399        -0.358348        -0.086952
 C         0.890204         0.713535         2.309433
 H         0.591282         0.689930         4.895645
 H         1.034826        -2.127029         2.034815
 H         0.205700        -2.623323         3.479920
 H        -1.839482        -1.148288         2.888830
 H        -1.220541        -1.082872         0.301408
 H        -1.897264         0.321503         1.126914
 H        -0.063026         1.071398        -1.147956
 H         1.406629         1.808719        -0.487280
 H         2.001838         0.748804         2.162709
 H         0.614343         1.755544         2.808657
