19
Iteration:   165
 O         0.185416        -0.031345         4.490581
 C         0.357498        -0.465129         3.222582
 C         0.161557        -1.893953         2.729459
 C        -0.918242        -0.906339         2.515953
 C        -0.976422        -0.177539         1.196240
 C         0.420875         0.354311         0.936589
 C         0.951238         0.964289        -0.332809
 O         1.190522        -0.398603        -0.076454
 C         1.077314         0.581146         2.330882
 H         1.107416         0.139421         4.841244
 H         0.960378        -2.206581         2.021294
 H         0.023579        -2.504121         3.690181
 H        -1.849867        -1.007114         3.126504
 H        -1.264576        -0.943601         0.411323
 H        -1.669275         0.637901         1.282655
 H         0.426488         1.165615        -1.238354
 H         1.843697         1.638543        -0.326202
 H         2.149446         0.419588         2.310312
 H         0.867866         1.477536         2.789231
