19
Iteration:   334
 O         0.102048        -0.035868         4.561984
 C         0.367943        -0.354497         3.215689
 C         0.170005        -1.915292         2.890047
 C        -0.862985        -0.925383         2.474114
 C        -0.884089        -0.319251         1.106875
 C         0.477768         0.315588         0.936583
 C         0.920132         1.099809        -0.296119
 O         1.093233        -0.371185        -0.229085
 C         1.170479         0.482890         2.334039
 H         0.853186         0.354186         5.077377
 H         0.818118        -2.361831         2.205008
 H        -0.052938        -2.414607         3.819219
 H        -1.791576        -0.720833         3.072490
 H        -1.169088        -1.015336         0.322379
 H        -1.667788         0.491996         1.080179
 H        -0.006459         1.482794        -0.984019
 H         1.750426         1.765902        -0.084384
 H         2.212597         0.223300         2.273685
 H         1.115019         1.517151         2.672839
