19
Iteration:  2883
 O         0.106884        -0.010105         4.644858
 C         0.328015        -0.370942         3.222455
 C         0.344121        -1.828230         2.791897
 C        -0.866304        -0.976810         2.474394
 C        -1.005290        -0.225050         1.119821
 C         0.387709         0.325468         0.901196
 C         0.843625         0.990626        -0.343186
 O         1.224220        -0.315814        -0.103189
 C         1.159870         0.502768         2.263342
 H         0.461501        -0.759971         5.156855
 H         1.058585        -2.212893         2.004701
 H         0.137606        -2.570650         3.592485
 H        -1.761036        -1.162094         2.990892
 H        -1.356804        -0.770988         0.162234
 H        -1.736157         0.611622         1.234184
 H         0.070295         1.094720        -1.057915
 H         1.555228         1.775858        -0.073687
 H         2.190318         0.114902         2.089642
 H         1.282036         1.509624         2.797799
