19
Iteration:  2550
 O         0.180861        -0.144800         4.577638
 C         0.331022        -0.404784         3.154658
 C         0.384998        -1.747683         2.704216
 C        -0.866654        -0.988848         2.422927
 C        -1.058935        -0.084449         1.148782
 C         0.374373         0.400139         0.935114
 C         1.035072         0.905794        -0.332657
 O         1.097766        -0.489531         0.008023
 C         1.009448         0.657640         2.362191
 H         1.017588        -0.400209         4.939122
 H         0.986475        -2.149574         1.923845
 H         0.275927        -2.528578         3.503768
 H        -1.558920        -1.122486         3.138738
 H        -1.276981        -0.639651         0.236793
 H        -1.890649         0.602583         1.394428
 H         0.456306         1.133290        -1.261945
 H         1.791551         1.609754        -0.121180
 H         2.129268         0.519904         2.323706
 H         0.594530         1.687713         2.534976
