19
Iteration:  4744charge 0 multiplicity 1
 O         0.333267        -0.116772         4.607837
 C         0.320130        -0.369039         3.207728
 C         0.596386        -1.756374         2.725245
 C        -0.757041        -1.144297         2.506087
 C        -0.996241        -0.428109         1.070714
 C         0.281245         0.339381         0.922657
 C         0.726253         0.971436        -0.359680
 O         1.202184        -0.309119        -0.015657
 C         0.820566         0.779516         2.331587
 H        -0.264287         0.680891         4.585135
 H         1.307526        -1.797631         1.906172
 H         0.749008        -2.586468         3.493037
 H        -1.570100        -1.456332         3.162467
 H        -1.308971        -1.100636         0.365883
 H        -1.748227         0.412527         1.159438
 H         0.068269         1.128569        -1.240586
 H         1.443138         1.735374        -0.202298
 H         1.910553         0.780558         2.524520
 H         0.459547         1.721817         2.646459
