19
Iteration:  4482charge 0 multiplicity 1
 O         0.522042        -0.004406         4.571743
 C         0.314506        -0.456564         3.223887
 C         0.393811        -1.841579         2.671225
 C        -0.889208        -0.927590         2.515702
 C        -1.116508        -0.354695         1.129362
 C         0.290416         0.286569         0.880967
 C         0.815107         1.021243        -0.364366
 O         1.351957        -0.304769         0.055821
 C         0.781169         0.700280         2.295517
 H        -0.010927        -0.557083         5.154842
 H         1.183055        -2.194880         1.954725
 H         0.162039        -2.698800         3.390491
 H        -1.711066        -1.415498         3.045916
 H        -1.138752        -1.216614         0.510599
 H        -1.989441         0.316856         0.828833
 H         0.259147         0.794806        -1.254936
 H         1.504026         1.864399        -0.402779
 H         1.911033         0.725725         2.471087
 H         0.293781         1.628220         2.759963
