19
Iteration:  3924
 O         0.292115         0.142728         4.509345
 C         0.317894        -0.462480         3.273408
 C         0.243376        -1.939388         2.984636
 C        -0.909193        -1.049611         2.479836
 C        -0.840010        -0.352436         1.085142
 C         0.488799         0.320335         0.945263
 C         0.627056         1.121812        -0.231686
 O         1.190707        -0.162115        -0.266550
 C         1.128868         0.444728         2.270913
 H        -0.133146        -0.592016         5.014142
 H         1.063871        -2.371334         2.252506
 H        -0.007029        -2.599633         3.873312
 H        -1.781982        -1.297105         2.995082
 H        -0.719946        -1.267849         0.427885
 H        -1.738448         0.151926         0.692590
 H        -0.298190         1.181003        -0.808798
 H         1.317479         1.937540        -0.330447
 H         2.203983         0.088889         2.301042
 H         1.194882         1.523320         2.724607
