19
Iteration:  3438charge 0 multiplicity 1
 O         0.199367         0.042295         4.492988
 C         0.298261        -0.433804         3.206882
 C         0.307124        -1.814859         2.903140
 C        -0.857581        -0.903275         2.423658
 C        -1.019231        -0.134962         1.151990
 C         0.423353         0.188830         0.891775
 C         0.834013         1.015665        -0.244941
 O         1.278560        -0.317325        -0.197531
 C         1.077666         0.384943         2.331910
 H         0.331160        -0.695345         5.098681
 H         1.010542        -2.350429         2.244528
 H         0.092727        -2.410132         3.781545
 H        -1.800676        -1.178109         2.997992
 H        -1.691098        -0.596046         0.446111
 H        -1.463081         0.904967         1.459947
 H         0.025977         1.157952        -0.944050
 H         1.551977         1.775697        -0.086277
 H         2.151351         0.149123         2.410321
 H         0.889062         1.438473         2.602357
