19
Iteration:  4788charge 0 multiplicity 1
 O         0.239150        -0.094589         4.561174
 C         0.375764        -0.311011         3.213595
 C         0.644620        -1.810690         2.741315
 C        -0.797520        -1.047422         2.509549
 C        -1.026469        -0.449997         1.049161
 C         0.314687         0.299574         0.914255
 C         0.637322         0.929453        -0.317677
 O         1.297980        -0.259882         0.056892
 C         0.810796         0.815193         2.303563
 H         0.827378        -0.764722         5.027226
 H         1.224960        -1.979487         1.806689
 H         0.788216        -2.571411         3.581223
 H        -1.713779        -1.381577         3.018931
 H        -1.306926        -0.876693         0.168136
 H        -1.783253         0.362971         1.212839
 H        -0.075928         0.653363        -1.141498
 H         1.242740         1.751297        -0.473925
 H         1.855408         1.102429         1.981321
 H         0.343461         1.700510         2.696107
