19
Iteration:  1112
 O         0.295210        -0.138093         4.443229
 C         0.358817        -0.410423         3.073244
 C         0.176591        -1.853590         2.660383
 C        -0.945627        -0.870362         2.501229
 C        -1.049774        -0.112964         1.196337
 C         0.327273         0.378741         0.989383
 C         0.934191         0.906523        -0.326162
 O         1.344074        -0.443882         0.191390
 C         0.986433         0.676538         2.256665
 H         0.977728        -0.752614         4.773154
 H         0.501638        -2.116133         1.737505
 H         0.131206        -2.623211         3.366348
 H        -1.696294        -0.923817         3.272099
 H        -1.412500        -0.658897         0.254189
 H        -1.764740         0.685594         1.352016
 H         0.323964         0.922469        -1.233986
 H         1.831150         1.409398        -0.325803
 H         2.078205         0.561222         2.369959
 H         0.851572         1.655849         2.795756
