19
Iteration:  3603
 O         0.217402         0.109993         4.620029
 C         0.343110        -0.405924         3.301469
 C         0.211727        -1.868831         2.913546
 C        -0.875388        -0.947943         2.518950
 C        -0.968154        -0.402079         1.117341
 C         0.434406         0.191818         0.852424
 C         0.835027         1.159456        -0.206020
 O         1.253060        -0.230891        -0.324402
 C         1.153321         0.377437         2.217094
 H        -0.672168         0.046376         5.084501
 H         0.905064        -2.243914         2.228727
 H         0.011026        -2.720148         3.611795
 H        -1.757121        -1.336972         3.051138
 H        -1.408163        -1.095445         0.390683
 H        -1.700680         0.490708         1.217750
 H         0.183653         1.654945        -0.916017
 H         1.644210         1.741619         0.023205
 H         2.213656         0.091389         2.273219
 H         0.957555         1.487585         2.443003
