19
Iteration:  1857
 O         0.120100        -0.069601         4.534609
 C         0.360963        -0.452172         3.235694
 C         0.409819        -1.871871         2.527698
 C        -0.746683        -0.893175         2.401500
 C        -1.075752        -0.002338         1.240012
 C         0.351063         0.372788         0.905273
 C         0.991054         0.896556        -0.237015
 O         1.145368        -0.510989         0.099676
 C         0.977379         0.553515         2.277821
 H         0.874904         0.115850         5.162400
 H         1.110230        -1.883314         1.756625
 H         0.366871        -2.681392         3.206521
 H        -1.600818        -1.352863         2.937170
 H        -1.725879        -0.280742         0.394048
 H        -1.811387         0.832337         1.511200
 H         0.334704         1.024219        -1.172928
 H         1.930030         1.387347        -0.309884
 H         2.088003         0.805241         2.389326
 H         0.469984         1.495795         2.493191
