19
Iteration:  1907
 O         0.261324        -0.182506         4.668357
 C         0.292030        -0.417286         3.220632
 C         0.205483        -1.754624         2.782889
 C        -0.966495        -0.828431         2.443201
 C        -0.889116        -0.248123         1.095940
 C         0.470363         0.320574         0.909608
 C         0.841595         0.978499        -0.382180
 O         1.249388        -0.358223        -0.050650
 C         1.001799         0.627033         2.305346
 H         0.954935        -0.694990         5.093107
 H         0.885884        -2.215621         1.946268
 H        -0.058128        -2.481917         3.594019
 H        -1.879462        -1.032586         3.082624
 H        -1.072182        -0.881750         0.206703
 H        -1.614655         0.547127         0.875750
 H        -0.065659         0.976933        -1.020939
 H         1.726117         1.678737        -0.414774
 H         2.084931         0.409077         2.257779
 H         0.902044         1.638898         2.718930
