19
Iteration:  4163charge 0 multiplicity 1
 O         0.347995        -0.048744         4.575754
 C         0.344547        -0.355233         3.174594
 C         0.320423        -1.840445         2.864292
 C        -0.875291        -1.044641         2.517840
 C        -0.932815        -0.416738         1.048018
 C         0.381651         0.362178         0.972917
 C         0.628063         1.009534        -0.365935
 O         1.314828        -0.218125        -0.085348
 C         1.053246         0.617137         2.262257
 H        -0.375690        -0.264422         5.170285
 H         0.957332        -2.190928         1.996826
 H         0.162195        -2.536215         3.835221
 H        -1.772035        -1.262865         3.216333
 H        -1.024102        -1.131952         0.282668
 H        -1.912886         0.221978         1.092110
 H        -0.412685         1.082650        -0.850158
 H         1.319224         1.805091        -0.586692
 H         2.135194         0.490452         2.247877
 H         0.799772         1.504224         2.781372
