19
Iteration:  2484charge 0 multiplicity 1
 O         0.366291        -0.120293         4.520953
 C         0.227715        -0.399479         3.172950
 C         0.167503        -1.830968         2.675389
 C        -0.945792        -0.952231         2.445407
 C        -0.983365        -0.137666         1.177777
 C         0.494536         0.440415         0.946650
 C         0.866175         0.878004        -0.366288
 O         1.340402        -0.412363         0.107224
 C         0.919885         0.628580         2.318015
 H         1.192095        -0.550454         4.884967
 H         0.769222        -2.280754         1.825152
 H        -0.081153        -2.660638         3.412464
 H        -1.917213        -0.973421         2.937786
 H        -1.111793        -0.606307         0.211658
 H        -1.680218         0.653849         1.305801
 H         0.059380         0.835373        -1.150107
 H         1.510158         1.719729        -0.560157
 H         2.023420         0.746729         2.529951
 H         0.479530         1.539242         2.841693
