19
Iteration:   383
 O         0.444317        -0.021672         4.577186
 C         0.249938        -0.372462         3.274174
 C         0.104256        -1.829437         2.854718
 C        -1.090719        -0.868100         2.480549
 C        -1.032338        -0.352284         1.046214
 C         0.472666         0.236784         0.902626
 C         0.772776         1.019171        -0.286754
 O         1.418155        -0.256412        -0.068564
 C         1.080887         0.509890         2.230266
 H         0.543123        -0.666801         5.275468
 H         0.690219        -2.255464         1.944282
 H        -0.061906        -2.457819         3.739560
 H        -2.054143        -1.036546         2.933717
 H        -1.232943        -0.994205         0.184531
 H        -1.739065         0.460247         0.866662
 H         0.112635         0.919597        -1.123305
 H         1.557818         1.829223        -0.162692
 H         2.227765         0.362215         2.257393
 H         0.981599         1.595334         2.649703
