19
Iteration:   109charge 0 multiplicity 1
 O         0.108952        -0.056793         4.594918
 C         0.272848        -0.390134         3.222010
 C         0.351903        -1.763359         2.691767
 C        -0.862963        -0.896252         2.510665
 C        -1.003446        -0.098262         1.193951
 C         0.474505         0.319985         0.990156
 C         0.952588         0.909202        -0.314750
 O         1.150715        -0.487007        -0.184490
 C         1.103356         0.586971         2.323562
 H         0.579020        -0.728604         5.082409
 H         0.917345        -1.984294         1.772302
 H         0.280304        -2.595567         3.334391
 H        -1.797608        -1.071505         3.084353
 H        -1.503190        -0.685943         0.351352
 H        -1.617041         0.742511         1.446172
 H         0.090713         1.017175        -1.004233
 H         1.758625         1.539446        -0.400400
 H         2.122928         0.311118         2.429657
 H         1.048021         1.561425         2.650845
