19
Iteration:   302charge 0 multiplicity 1
 O         0.156609         0.127791         4.530678
 C         0.300394        -0.459586         3.265174
 C         0.282295        -1.930982         2.828741
 C        -0.942987        -1.015133         2.420667
 C        -1.063530        -0.155547         1.158105
 C         0.465801         0.318771         0.849536
 C         0.850663         1.046828        -0.291344
 O         1.289841        -0.326839        -0.097127
 C         1.150300         0.294537         2.320941
 H         0.818063         0.707206         4.876591
 H         1.078853        -2.222271         2.220356
 H         0.104885        -2.717689         3.528023
 H        -1.887790        -0.966792         3.059428
 H        -1.501015        -0.588869         0.319107
 H        -1.467855         0.801907         1.488268
 H        -0.088518         1.213256        -1.071774
 H         1.377779         1.963814        -0.231914
 H         2.143890        -0.113658         2.186693
 H         1.265572         1.339866         2.786053
