19
Iteration:  1810
 O         0.262318        -0.252438         4.646782
 C         0.288489        -0.350823         3.202191
 C         0.325883        -1.768532         2.723570
 C        -0.926217        -0.853121         2.441760
 C        -1.040155        -0.165153         1.069984
 C         0.418371         0.379960         0.875338
 C         0.922203         0.930202        -0.347795
 O         1.219663        -0.444374         0.090666
 C         0.990094         0.683876         2.303068
 H         1.137680        -0.595007         4.902863
 H         0.994505        -2.124891         1.872260
 H        -0.081860        -2.578998         3.359600
 H        -1.810150        -1.012713         3.075485
 H        -1.297370        -0.877775         0.311009
 H        -1.839367         0.496527         0.895540
 H         0.242200         0.997673        -1.247984
 H         1.806031         1.659754        -0.272098
 H         2.154392         0.644963         2.194981
 H         0.739621         1.681729         2.625943
