19
Iteration:   595charge 0 multiplicity 1
 O         0.402230        -0.128106         4.532995
 C         0.345137        -0.479964         3.152929
 C         0.037664        -1.902064         2.899577
 C        -1.005075        -0.866097         2.555739
 C        -0.943856        -0.324188         1.068102
 C         0.403152         0.349138         0.897726
 C         0.891326         1.106300        -0.285310
 O         1.295946        -0.301836        -0.022157
 C         1.069670         0.493301         2.235599
 H        -0.033580         0.727816         4.651484
 H         0.712717        -2.476743         2.268804
 H        -0.133960        -2.222296         3.923487
 H        -1.908708        -0.794456         3.186773
 H        -1.301967        -0.965194         0.198826
 H        -1.606803         0.528124         0.959641
 H         0.224334         1.285963        -1.207586
 H         1.788815         1.674452        -0.326641
 H         2.185409         0.409637         2.170631
 H         0.840345         1.607350         2.435788
