19
Iteration:  3044
 O         0.218798        -0.053095         4.543583
 C         0.332534        -0.358906         3.180169
 C         0.258996        -1.789831         2.790922
 C        -0.896668        -0.888463         2.507683
 C        -0.998746        -0.281142         1.096454
 C         0.435307         0.299555         0.909763
 C         0.874445         1.089477        -0.226842
 O         1.190677        -0.400966        -0.089139
 C         1.119675         0.507913         2.281608
 H        -0.047413        -0.899703         4.890956
 H         0.961532        -2.091957         1.967811
 H         0.302966        -2.576729         3.635486
 H        -1.834281        -0.968576         3.131294
 H        -1.326216        -0.922644         0.240892
 H        -1.690066         0.598368         1.111792
 H         0.129668         1.068665        -1.015614
 H         1.716780         1.823292        -0.030648
 H         2.168784         0.172396         2.428643
 H         1.064679         1.545271         2.612293
