19
Iteration:  3594charge 0 multiplicity 1
 O         0.229295         0.117079         4.592594
 C         0.298783        -0.396802         3.309281
 C         0.244072        -1.872787         2.981980
 C        -0.846060        -0.924549         2.505086
 C        -0.919180        -0.411690         1.098069
 C         0.436031         0.171524         0.814048
 C         0.868840         1.176797        -0.191851
 O         1.173277        -0.219337        -0.316763
 C         1.115262         0.358688         2.259022
 H        -0.592458        -0.354463         4.940435
 H         0.970340        -2.057959         2.203341
 H        -0.080550        -2.712604         3.653466
 H        -1.857463        -1.048228         2.859258
 H        -1.288109        -1.165914         0.319899
 H        -1.685040         0.411867         1.142911
 H         0.157603         1.470386        -0.942961
 H         1.641585         1.861972         0.195530
 H         2.150808         0.012100         2.115749
 H         1.278912         1.435891         2.509728
