19
Iteration:    69charge 0 multiplicity 1
 O         0.426920        -0.059560         4.497190
 C         0.336747        -0.429743         3.141110
 C         0.101825        -1.954699         2.776176
 C        -0.940900        -0.841192         2.414300
 C        -1.054270        -0.199424         1.057887
 C         0.332360         0.415379         0.964892
 C         0.884315         0.893059        -0.327454
 O         1.373948        -0.343627         0.141933
 C         0.956090         0.617688         2.315008
 H         1.067166        -0.653354         4.977722
 H         0.756738        -2.586217         2.102450
 H        -0.290775        -2.571641         3.629151
 H        -1.866600        -0.930182         3.026280
 H        -1.297366        -0.823494         0.241284
 H        -1.762719         0.685863         1.162273
 H         0.164045         0.787184        -1.119973
 H         1.657352         1.752100        -0.487175
 H         2.079085         0.538583         2.142932
 H         0.796549         1.665917         2.723965
