19
Iteration:  3473charge 0 multiplicity 1
 O         0.351121         0.079642         4.590325
 C         0.348713        -0.403697         3.232621
 C         0.057553        -1.974604         2.858457
 C        -0.890632        -0.851782         2.532752
 C        -0.904950        -0.469529         1.039016
 C         0.398889         0.322091         0.874367
 C         0.872396         1.109357        -0.304510
 O         1.185979        -0.245949        -0.193583
 C         1.153856         0.472306         2.374922
 H        -0.448683        -0.114504         5.099383
 H         0.512556        -2.478732         2.008324
 H        -0.117955        -2.468362         3.765307
 H        -1.902091        -0.862212         3.074579
 H        -0.835152        -1.391461         0.418396
 H        -1.875479         0.037996         0.781321
 H         0.125223         1.537888        -1.050144
 H         1.658089         1.790113        -0.128409
 H         2.178820         0.168014         2.254723
 H         1.194347         1.424104         2.856639
