19
Iteration:  1287
 O         0.188637        -0.009227         4.571224
 C         0.337160        -0.425460         3.200815
 C         0.068590        -1.859139         2.845581
 C        -0.967498        -0.759312         2.564176
 C        -0.874438        -0.413596         1.157514
 C         0.533438         0.286570         0.918657
 C         0.849603         1.117950        -0.241809
 O         1.225474        -0.279340        -0.242951
 C         1.155035         0.443995         2.270844
 H         0.758207        -0.758502         4.898401
 H         0.426544        -2.232023         1.927583
 H        -0.023905        -2.649707         3.575631
 H        -1.879546        -0.738038         3.201394
 H        -0.826605        -1.351705         0.427948
 H        -1.789855         0.163041         0.988175
 H         0.203501         1.343926        -1.067801
 H         1.621542         1.915930        -0.032653
 H         2.310602         0.277730         2.157601
 H         0.854234         1.386170         2.801912
