19
Iteration:  4570
 O         0.161162         0.006198         4.549580
 C         0.319223        -0.402321         3.219643
 C         0.426344        -1.859692         2.868133
 C        -0.797186        -1.117852         2.497265
 C        -0.919243        -0.407933         1.169348
 C         0.399156         0.285673         0.899484
 C         0.662727         1.084502        -0.272942
 O         1.200932        -0.194184        -0.174559
 C         1.050118         0.550744         2.270536
 H         0.964621         0.446852         4.841271
 H         1.203990        -1.982479         2.044090
 H         0.173155        -2.524184         3.694478
 H        -1.745365        -1.341614         3.035449
 H        -1.130040        -1.064911         0.357360
 H        -1.774309         0.349768         1.312032
 H        -0.132719         1.125498        -1.029011
 H         1.403340         1.812157        -0.327539
 H         2.162501         0.399188         2.390228
 H         0.887507         1.612994         2.584099
