19
Iteration:  4709charge 0 multiplicity 1
 O         0.344529         0.041591         4.570215
 C         0.359778        -0.386231         3.202819
 C         0.509605        -1.869686         2.792119
 C        -0.834734        -1.151637         2.556237
 C        -1.043546        -0.482655         1.079296
 C         0.354489         0.315680         0.870708
 C         0.700324         1.018712        -0.355297
 O         1.264043        -0.206811        -0.036582
 C         0.869597         0.745377         2.289977
 H        -0.072383        -0.711605         5.059145
 H         1.190905        -2.033894         1.942104
 H         0.561809        -2.600601         3.570251
 H        -1.704452        -1.330125         3.210187
 H        -1.243824        -1.173335         0.274502
 H        -1.901464         0.190851         1.149791
 H        -0.029374         1.168525        -1.143979
 H         1.384576         1.888880        -0.107752
 H         1.987300         0.650125         2.352547
 H         0.615731         1.750508         2.647177
