19
Iteration:  3465
 O         0.294628         0.110890         4.590985
 C         0.363468        -0.453610         3.242606
 C         0.086862        -2.003716         2.867775
 C        -0.919368        -0.879594         2.545893
 C        -0.925776        -0.425101         1.091000
 C         0.440772         0.350379         0.874900
 C         0.877275         1.161120        -0.248550
 O         1.190580        -0.305160        -0.230188
 C         1.165731         0.524465         2.318346
 H        -0.388420        -0.366642         5.060929
 H         0.449581        -2.483411         1.980034
 H         0.099858        -2.672798         3.770225
 H        -1.873245        -0.952475         2.977514
 H        -1.149863        -1.290114         0.414191
 H        -1.701663         0.258090         0.962567
 H         0.217917         1.152632        -1.143430
 H         1.740486         1.927128        -0.220349
 H         2.169899         0.120686         2.221029
 H         1.115628         1.561857         2.622894
