19
Iteration:   220
 O         0.410355        -0.145409         4.659116
 C         0.208408        -0.316509         3.258575
 C         0.107240        -1.797928         2.862577
 C        -1.043164        -0.819479         2.558504
 C        -0.950541        -0.331514         1.066482
 C         0.437486         0.314666         0.870793
 C         0.864572         1.033574        -0.438167
 O         1.393692        -0.340489        -0.082725
 C         0.991459         0.567268         2.276330
 H         0.788946        -1.017322         4.920214
 H         0.524532        -2.208711         1.897616
 H        -0.021831        -2.561272         3.745500
 H        -1.991247        -0.793502         3.075187
 H        -1.187679        -1.158478         0.272279
 H        -1.764814         0.406098         0.835041
 H         0.212255         1.067773        -1.273375
 H         1.840033         1.690105        -0.391998
 H         2.084121         0.448755         2.359077
 H         0.777130         1.528572         2.606521
