19
Iteration:   851
 O         0.180047        -0.102453         4.587887
 C         0.342599        -0.357550         3.182543
 C         0.272094        -1.825785         2.753163
 C        -0.853601        -0.811094         2.536891
 C        -1.019640        -0.229869         1.116409
 C         0.434025         0.326009         0.888737
 C         0.939396         0.986985        -0.233793
 O         1.154868        -0.412921        -0.056223
 C         1.079036         0.553074         2.201445
 H         0.695092        -0.806914         5.028768
 H         0.817972        -2.203133         1.959605
 H         0.058224        -2.480566         3.602521
 H        -1.765430        -1.046547         3.119938
 H        -1.279548        -0.883898         0.312599
 H        -1.784824         0.533111         1.142818
 H         0.339845         1.201267        -1.104591
 H         1.733259         1.708634        -0.137319
 H         2.097630         0.382817         2.278775
 H         0.903079         1.564117         2.668498
