19
Iteration:   536charge 0 multiplicity 1
 O         0.286597        -0.219753         4.601440
 C         0.299607        -0.356083         3.222154
 C         0.208289        -1.808047         2.694701
 C        -0.971587        -0.834493         2.533289
 C        -0.995378        -0.188263         1.133873
 C         0.402362         0.296763         0.883232
 C         0.846012         0.897094        -0.334809
 O         1.321106        -0.402308        -0.044500
 C         1.016060         0.648739         2.321683
 H         0.972657         0.478116         4.819572
 H         0.877246        -2.198168         1.935560
 H         0.060798        -2.598472         3.501450
 H        -1.761614        -1.001272         3.310216
 H        -1.194449        -0.881582         0.362220
 H        -1.715646         0.634090         1.145214
 H         0.423722         1.068297        -1.308663
 H         1.622527         1.737094        -0.261006
 H         2.125144         0.606784         2.315397
 H         0.704768         1.651385         2.546425
