19
Iteration:  4960charge 0 multiplicity 1
 O         0.137212         0.028601         4.585966
 C         0.430949        -0.420943         3.261310
 C         0.625950        -1.853119         2.891560
 C        -0.774755        -1.128700         2.564514
 C        -0.914400        -0.580160         1.099432
 C         0.321984         0.254664         0.823183
 C         0.552048         1.154925        -0.293052
 O         1.278849        -0.125744        -0.142796
 C         0.870532         0.624665         2.250509
 H         0.951922         0.410881         5.024196
 H         1.243707        -2.022698         1.970751
 H         0.671357        -2.639640         3.622647
 H        -1.647802        -1.430051         3.121945
 H        -0.912769        -1.476016         0.348887
 H        -1.924212        -0.077018         0.954047
 H        -0.219224         1.193670        -1.104017
 H         1.212785         1.924821        -0.019963
 H         1.851880         0.981873         1.994708
 H         0.271955         1.500046         2.551114
