19
Iteration:   708
 O         0.418317        -0.002997         4.507772
 C         0.346815        -0.485194         3.188779
 C         0.080349        -1.910616         2.903954
 C        -1.061541        -0.922774         2.468675
 C        -1.062634        -0.189966         1.149162
 C         0.441196         0.287791         0.884633
 C         0.946933         1.026066        -0.309772
 O         1.390374        -0.303916        -0.051539
 C         0.963890         0.525211         2.237083
 H         0.598211        -0.650555         5.165516
 H         0.541014        -2.498307         2.072402
 H        -0.153830        -2.541519         3.728309
 H        -1.928236        -0.874595         3.082059
 H        -1.362755        -0.771742         0.231653
 H        -1.779832         0.674309         1.249746
 H         0.268495         1.164040        -1.172974
 H         1.785285         1.773212        -0.050656
 H         2.020052         0.412946         2.459147
 H         0.728085         1.681052         2.384784
