19
Iteration:  3512charge 0 multiplicity 1
 O         0.413891        -0.058900         4.615483
 C         0.226691        -0.348081         3.211483
 C        -0.011268        -1.835800         2.984906
 C        -1.006218        -0.909475         2.535944
 C        -0.934908        -0.511477         1.041814
 C         0.518245         0.158283         0.878257
 C         0.670329         1.130186        -0.243466
 O         1.441037        -0.112047        -0.258956
 C         1.146094         0.403668         2.250819
 H         0.238749         0.899411         4.635205
 H         0.532655        -2.593003         2.330978
 H        -0.166323        -2.290986         3.969693
 H        -1.925923        -0.675657         3.105255
 H        -1.124969        -1.269056         0.289630
 H        -1.665249         0.314809         0.844195
 H        -0.051907         1.418581        -0.993290
 H         1.359663         1.900001         0.185730
 H         2.131137        -0.134428         2.336141
 H         1.203345         1.539085         2.393727
