19
Iteration:  2153charge 0 multiplicity 1
 O         0.258678        -0.157381         4.586249
 C         0.310919        -0.449549         3.216588
 C         0.319400        -1.880886         2.684769
 C        -0.917924        -0.859870         2.402886
 C        -1.044746        -0.039364         1.072094
 C         0.436332         0.352640         0.937508
 C         0.819000         0.822063        -0.410903
 O         1.277383        -0.372585         0.161625
 C         1.014545         0.635229         2.356718
 H         1.185572        -0.173574         4.819385
 H         0.999141        -2.167386         1.867804
 H        -0.011082        -2.697133         3.352069
 H        -1.934494        -1.116124         2.832723
 H        -1.386308        -0.616300         0.201715
 H        -1.485659         0.860571         1.400035
 H        -0.046496         0.895171        -1.145157
 H         1.525857         1.767130        -0.524777
 H         2.134695         0.607596         2.242830
 H         0.696303         1.573504         2.606221
