19
Iteration:  1481
 O         0.401527        -0.208439         4.607174
 C         0.294349        -0.335346         3.209375
 C         0.306058        -1.726090         2.736695
 C        -0.983586        -0.888189         2.478981
 C        -1.039023        -0.221156         1.059917
 C         0.312762         0.402646         0.882762
 C         1.072867         0.931219        -0.342259
 O         1.159522        -0.445531         0.073443
 C         0.982933         0.661400         2.292486
 H        -0.172337        -0.942662         4.925733
 H         0.872248        -2.029516         1.888400
 H         0.108006        -2.571757         3.341650
 H        -1.909681        -1.056849         3.165081
 H        -1.382347        -0.816368         0.271038
 H        -1.736689         0.589013         0.998992
 H         0.458014         1.126135        -1.236069
 H         2.022818         1.480219        -0.199252
 H         2.145016         0.512913         2.288882
 H         0.770573         1.700518         2.581330
