19
Iteration:   688charge 0 multiplicity 1
 O         0.279695         0.037748         4.514851
 C         0.326337        -0.431921         3.237423
 C         0.104941        -1.969830         2.854870
 C        -0.926214        -0.867154         2.547539
 C        -0.981109        -0.267316         1.136571
 C         0.399684         0.334985         0.894324
 C         0.952138         1.084587        -0.296095
 O         1.255685        -0.343922        -0.134568
 C         1.119891         0.447621         2.249935
 H        -0.084775        -0.630961         5.120142
 H         0.719803        -2.386226         2.059216
 H        -0.118956        -2.542438         3.689248
 H        -1.870782        -0.904713         3.028825
 H        -1.438030        -0.915184         0.403343
 H        -1.702133         0.674933         1.217897
 H         0.432626         1.383033        -1.175251
 H         1.879796         1.730607        -0.170932
 H         2.244935         0.415772         2.231863
 H         0.933037         1.526875         2.735156
