19
Iteration:  2708charge 0 multiplicity 1
 O         0.231473         0.209429         4.428122
 C         0.280863        -0.477439         3.215517
 C         0.157825        -1.936176         3.062135
 C        -0.924123        -0.927943         2.506522
 C        -0.937173        -0.425188         1.097780
 C         0.416666         0.219944         0.850294
 C         0.876586         1.247760        -0.072408
 O         1.238306        -0.098699        -0.198931
 C         1.196403         0.165641         2.145915
 H        -0.353936        -0.238567         5.027247
 H         0.902889        -2.361570         2.417952
 H        -0.249198        -2.542732         3.915389
 H        -1.846388        -0.992517         3.136505
 H        -1.130867        -1.178335         0.320291
 H        -1.651346         0.352808         1.008549
 H         0.054868         1.523281        -0.788571
 H         1.762729         2.047680         0.041689
 H         2.048979        -0.478350         1.901545
 H         1.648522         1.135834         2.398192
