19
Iteration:  4540
 O         0.190163        -0.125086         4.711393
 C         0.430355        -0.425655         3.236610
 C         0.399864        -1.844161         2.819214
 C        -0.787306        -0.991595         2.556482
 C        -0.978282        -0.395601         1.131535
 C         0.332081         0.316841         0.824092
 C         0.692907         1.019092        -0.368826
 O         1.249821        -0.212622        -0.136640
 C         1.012189         0.585319         2.264404
 H         0.201246         0.859503         4.821538
 H         1.047177        -1.909638         1.895208
 H         0.390754        -2.630278         3.552385
 H        -1.661672        -0.931530         3.240669
 H        -1.058869        -1.139948         0.246732
 H        -1.840468         0.261762         1.044364
 H         0.008189         1.019893        -1.351943
 H         1.374883         1.898663        -0.368501
 H         2.117535         0.583064         2.271138
 H         0.666199         1.635924         2.620199
