19
Iteration:   338charge 0 multiplicity 1
 O         0.105715        -0.044276         4.582495
 C         0.403423        -0.373709         3.208716
 C         0.164731        -1.874793         2.914980
 C        -0.912260        -0.920870         2.519816
 C        -0.893864        -0.320640         1.077169
 C         0.474043         0.285701         0.952985
 C         0.923202         1.131883        -0.321242
 O         1.109716        -0.376919        -0.246493
 C         1.166908         0.504775         2.320035
 H         0.844023         0.160027         5.154099
 H         0.799979        -2.340620         2.110665
 H        -0.083762        -2.507790         3.806410
 H        -1.790833        -0.853748         3.120735
 H        -1.207981        -1.010565         0.317987
 H        -1.690510         0.394225         0.861640
 H         0.086229         1.462832        -0.897385
 H         1.826508         1.729868        -0.087615
 H         2.270699         0.298302         2.221661
 H         1.081372         1.636934         2.663535
