19
Iteration:  1744
 O         0.416681         0.031072         4.567889
 C         0.275737        -0.469332         3.239956
 C         0.055759        -1.873658         2.928397
 C        -0.972162        -0.951388         2.376082
 C        -0.973975        -0.313593         1.019743
 C         0.379460         0.363450         0.936706
 C         0.825779         1.089879        -0.245676
 O         1.382867        -0.255311        -0.090246
 C         1.061180         0.428301         2.270231
 H         0.522784        -0.740318         5.183420
 H         0.677632        -2.566158         2.346976
 H        -0.516857        -2.525714         3.680174
 H        -1.795885        -0.754542         2.951548
 H        -1.066221        -0.977504         0.166081
 H        -1.854888         0.544030         0.855715
 H         0.119117         1.118842        -1.072641
 H         1.651521         1.929920        -0.170096
 H         2.190811         0.269445         2.189137
 H         0.972079         1.436034         2.644970
