19
Iteration:  4383charge 0 multiplicity 1
 O         0.199394        -0.144637         4.544587
 C         0.352137        -0.369546         3.171684
 C         0.481281        -1.792223         2.739036
 C        -0.830988        -1.060226         2.503456
 C        -0.972428        -0.247379         1.168149
 C         0.384822         0.317323         0.968691
 C         0.705905         0.972473        -0.292652
 O         1.235392        -0.406461        -0.039108
 C         0.931347         0.695567         2.247057
 H         0.554829         0.645757         4.955532
 H         1.180767        -2.014513         1.905635
 H         0.552971        -2.579291         3.555845
 H        -1.712998        -1.135816         3.126473
 H        -1.329899        -0.758519         0.338316
 H        -1.631640         0.602140         1.474812
 H         0.001601         1.164950        -1.055279
 H         1.455821         1.796921        -0.270861
 H         2.042982         0.516841         2.069303
 H         0.805677         1.796296         2.472193
