19
Iteration:  1094
 O         0.433016        -0.176702         4.577861
 C         0.300912        -0.425921         3.185169
 C         0.141467        -1.852534         2.607606
 C        -1.045940        -0.783984         2.514188
 C        -1.102635        -0.192912         1.111587
 C         0.389542         0.412254         0.933988
 C         1.010726         0.902185        -0.380782
 O         1.338204        -0.420557         0.153968
 C         0.945378         0.643911         2.278549
 H         1.286991        -0.359837         5.017341
 H         0.805243        -2.229222         1.760297
 H        -0.051133        -2.615241         3.485262
 H        -1.985494        -0.980463         2.974805
 H        -1.375428        -0.915628         0.392337
 H        -1.799781         0.680070         1.093350
 H         0.418654         0.837545        -1.304585
 H         1.628326         1.855993        -0.199275
 H         1.986029         0.653889         2.146118
 H         0.583243         1.611984         2.653363
