19
Iteration:  1423charge 0 multiplicity 1
 O         0.519273        -0.055486         4.652802
 C         0.199290        -0.410216         3.235022
 C         0.042979        -1.895224         2.778802
 C        -1.069416        -0.854525         2.483010
 C        -1.030659        -0.218605         1.049188
 C         0.429267         0.304511         0.867892
 C         0.842492         0.969551        -0.403916
 O         1.485757        -0.273497        -0.018235
 C         1.019263         0.503266         2.337194
 H         0.510041        -0.902769         5.077920
 H         0.730918        -2.280957         1.985185
 H        -0.207564        -2.473564         3.717826
 H        -2.055800        -1.193110         2.716690
 H        -1.371677        -0.948022         0.371493
 H        -1.544911         0.790037         1.023462
 H         0.062259         0.988793        -1.154558
 H         1.371920         1.850942        -0.414878
 H         2.045880         0.438388         2.491920
 H         0.701727         1.636280         2.593320
