19
Iteration:  4736
 O         0.361346        -0.082427         4.568504
 C         0.361957        -0.381145         3.219766
 C         0.613741        -1.719428         2.749386
 C        -0.767034        -1.079774         2.422813
 C        -0.953969        -0.421520         1.105901
 C         0.316257         0.281045         0.885454
 C         0.677949         1.003714        -0.299913
 O         1.185756        -0.328739         0.004207
 C         0.784341         0.722989         2.332227
 H        -0.486288         0.386041         4.782555
 H         1.334678        -1.890857         1.941231
 H         0.514805        -2.503783         3.533061
 H        -1.704969        -1.305545         2.929899
 H        -1.227036        -1.053581         0.207395
 H        -1.838157         0.249398         1.270214
 H         0.135202         1.011873        -1.238397
 H         1.279707         1.793844         0.121365
 H         1.875489         0.746784         2.329189
 H         0.478257         1.691466         2.698146
