19
Iteration:  1471
 O         0.412914        -0.183120         4.513642
 C         0.297625        -0.352545         3.136464
 C         0.203495        -1.828448         2.703214
 C        -0.978998        -0.888637         2.487883
 C        -1.098668        -0.233968         1.131463
 C         0.415168         0.370181         0.942684
 C         1.001064         0.984058        -0.305588
 O         1.217083        -0.452662         0.093880
 C         0.982073         0.739547         2.304199
 H        -0.050757        -0.908938         5.026053
 H         0.698517        -2.161880         1.815533
 H         0.145085        -2.424526         3.570368
 H        -1.854476        -0.745234         3.208078
 H        -1.047672        -0.979636         0.328997
 H        -1.901016         0.432842         1.027372
 H         0.634874         1.028443        -1.353252
 H         1.985441         1.592007        -0.206546
 H         2.143740         0.516998         2.273061
 H         0.812196         1.761561         2.514934
