19
Iteration:   996
 O         0.150440         0.097396         4.516246
 C         0.251353        -0.452288         3.130539
 C         0.232171        -1.898297         2.876568
 C        -0.895891        -0.972512         2.406950
 C        -0.906896        -0.150699         1.160987
 C         0.518878         0.294722         0.992673
 C         0.816549         1.067613        -0.290159
 O         1.152156        -0.313510        -0.127442
 C         1.211094         0.359521         2.319381
 H         0.443787        -0.554355         5.207829
 H         1.038436        -2.157683         2.128794
 H         0.029866        -2.701191         3.675935
 H        -1.832212        -1.049725         2.875487
 H        -1.313168        -0.524429         0.271630
 H        -1.617947         0.661862         1.518404
 H        -0.041317         1.265140        -0.985285
 H         1.735414         1.632325        -0.343641
 H         2.213631        -0.080191         2.345589
 H         1.274444         1.418367         2.638724
