19
Iteration:  2147
 O         0.263665        -0.172666         4.579617
 C         0.306085        -0.456629         3.245985
 C         0.263227        -1.823841         2.720576
 C        -0.945315        -0.902704         2.433813
 C        -1.019184        -0.070941         1.083473
 C         0.447534         0.376057         0.945202
 C         0.809542         0.854354        -0.462822
 O         1.302965        -0.355294         0.110126
 C         1.029836         0.647683         2.357950
 H         1.214036        -0.354578         4.849333
 H         0.858627        -2.161365         1.858878
 H         0.016851        -2.760580         3.264477
 H        -1.802253        -1.127645         3.007185
 H        -1.234787        -0.624879         0.150949
 H        -1.608030         0.897367         1.313200
 H         0.044755         0.648586        -1.176177
 H         1.481008         1.646987        -0.429055
 H         2.083178         0.419928         2.373535
 H         0.684699         1.796854         2.594480
