19
Iteration:  3564
 O         0.188057         0.140831         4.465873
 C         0.331788        -0.443108         3.251877
 C         0.076418        -1.891279         3.030889
 C        -0.928789        -0.953653         2.502023
 C        -0.900372        -0.489481         1.079490
 C         0.476451         0.324336         0.922128
 C         0.788377         1.167710        -0.221207
 O         1.178724        -0.177081        -0.214354
 C         1.291276         0.349535         2.264432
 H         0.778030        -0.415086         4.970820
 H         0.784585        -2.308072         2.246014
 H        -0.242933        -2.494600         3.901484
 H        -1.930928        -1.212268         2.788651
 H        -0.863916        -1.279401         0.270062
 H        -1.749737         0.109773         0.921477
 H        -0.068387         1.503941        -0.841844
 H         1.633844         2.029290        -0.213247
 H         2.303054        -0.024234         2.042635
 H         1.366059         1.338292         2.653798
