19
Iteration:  3789charge 0 multiplicity 1
 O         0.290793        -0.137748         4.606525
 C         0.306878        -0.356018         3.243217
 C         0.367664        -1.771740         2.801520
 C        -0.854360        -0.929952         2.571154
 C        -1.031389        -0.273585         1.151423
 C         0.388325         0.217006         0.862963
 C         0.737127         0.991127        -0.331968
 O         1.328351        -0.328311        -0.144792
 C         1.011989         0.606694         2.273465
 H        -0.649902        -0.366011         4.905118
 H         0.859735        -1.962141         1.781029
 H         0.738534        -2.580530         3.517983
 H        -1.746288        -0.731224         3.215373
 H        -1.355714        -0.932238         0.344620
 H        -1.733570         0.536939         1.368714
 H         0.113772         1.149304        -1.269230
 H         1.496326         1.755481        -0.081698
 H         2.119069         0.536534         2.238239
 H         0.651308         1.665565         2.455531
