19
Iteration:  4978charge 0 multiplicity 1
 O         0.264929         0.113602         4.599192
 C         0.309191        -0.363501         3.222896
 C         0.568844        -1.854400         2.841136
 C        -0.680814        -1.165441         2.497270
 C        -0.925894        -0.675860         1.130503
 C         0.288733         0.271424         0.858976
 C         0.612470         1.112324        -0.303711
 O         1.274178        -0.109174        -0.149478
 C         0.810991         0.698941         2.305614
 H         0.532485        -0.699994         5.115521
 H         1.339762        -1.992952         2.109228
 H         0.426398        -2.590809         3.633056
 H        -1.588651        -1.525094         2.963426
 H        -0.994905        -1.552060         0.428991
 H        -1.852544        -0.169837         1.006385
 H        -0.180998         1.113242        -1.147885
 H         1.103082         2.129603        -0.230613
 H         1.917561         0.716761         2.400811
 H         0.378899         1.656532         2.615046
