19
Iteration:  2355charge 0 multiplicity 1
 O         0.105495         0.118129         4.450466
 C         0.330549        -0.489203         3.232368
 C         0.201343        -1.952679         2.938663
 C        -0.928814        -0.929820         2.538172
 C        -0.993761        -0.294290         1.172649
 C         0.449335         0.307460         0.924356
 C         0.845198         1.167673        -0.168002
 O         1.258092        -0.247137        -0.234098
 C         1.259752         0.325040         2.219216
 H         0.802110        -0.200959         5.013279
 H         0.613681        -2.514568         2.058828
 H        -0.237719        -2.543047         3.735270
 H        -1.918422        -0.990006         3.081784
 H        -1.206581        -0.879849         0.239405
 H        -1.652021         0.630102         1.162283
 H         0.077415         1.384901        -1.010410
 H         1.724627         1.822971         0.022040
 H         2.236464        -0.144611         2.097727
 H         1.281747         1.319517         2.566472
