19
Iteration:   528charge 0 multiplicity 1
 O         0.230589        -0.206443         4.564733
 C         0.339355        -0.432216         3.140043
 C         0.198383        -1.828437         2.731175
 C        -0.896155        -0.812677         2.515753
 C        -1.002783        -0.199918         1.186246
 C         0.414884         0.340561         0.925162
 C         0.869150         0.881255        -0.370093
 O         1.284595        -0.396594         0.000669
 C         1.017813         0.667505         2.292081
 H         0.972153         0.441758         4.773824
 H         0.908932        -2.179939         1.996693
 H         0.097460        -2.314643         3.676843
 H        -1.750013        -1.189156         3.099885
 H        -1.384017        -0.659141         0.239904
 H        -1.645780         0.639088         1.301668
 H         0.271573         0.991488        -1.307517
 H         1.641459         1.632454        -0.104542
 H         2.155903         0.642933         2.129575
 H         0.704045         1.661773         2.827974
