19
Iteration:  1193charge 0 multiplicity 1
 O         0.136085        -0.101391         4.558568
 C         0.388532        -0.403498         3.142803
 C         0.208155        -1.867324         2.763707
 C        -0.877596        -0.829056         2.507187
 C        -1.001859        -0.160513         1.152033
 C         0.401667         0.286177         0.888597
 C         0.951236         1.018366        -0.197945
 O         1.188391        -0.459926        -0.079636
 C         1.105692         0.564117         2.262126
 H         0.970814         0.002521         4.989676
 H         0.915451        -2.235055         1.855290
 H         0.087487        -2.621074         3.611734
 H        -1.834774        -0.952919         3.095049
 H        -1.364449        -0.812974         0.434001
 H        -1.518616         0.845006         1.195241
 H         0.188398         1.282903        -0.929946
 H         1.788480         1.792138        -0.211123
 H         2.081126         0.264187         2.106059
 H         0.882566         1.532634         2.691434
