19
Iteration:     9
 O         0.280315        -0.148128         4.584633
 C         0.357085        -0.400606         3.253338
 C         0.219622        -1.782724         2.713911
 C        -0.961238        -0.824687         2.509856
 C        -1.018574        -0.250131         1.105643
 C         0.403741         0.304199         0.964561
 C         0.910543         0.983292        -0.252364
 O         1.274715        -0.438945        -0.077137
 C         1.002590         0.637212         2.276494
 H         1.146245        -0.403916         4.966814
 H         0.698388        -1.981445         1.808675
 H         0.048972        -2.498768         3.540666
 H        -1.927214        -0.889136         2.971845
 H        -1.113587        -0.887387         0.166556
 H        -1.664117         0.488575         0.902839
 H         0.313570         1.030758        -1.178274
 H         1.507227         1.790406        -0.212693
 H         2.060241         0.595758         2.280178
 H         0.589778         1.566819         2.506674
