19
Iteration:  1183charge 0 multiplicity 1
 O         0.134910        -0.171738         4.601589
 C         0.285358        -0.376102         3.267703
 C         0.312843        -1.735783         2.750214
 C        -0.909250        -0.866695         2.468013
 C        -0.990841        -0.165567         1.144747
 C         0.462953         0.316930         0.913512
 C         0.967033         0.998458        -0.283246
 O         1.142943        -0.471821        -0.123406
 C         1.110542         0.540711         2.268051
 H         1.001167        -0.007688         4.977836
 H         0.872178        -2.180686         1.812296
 H        -0.009212        -2.495708         3.504411
 H        -1.851350        -0.987347         3.082838
 H        -1.509244        -0.695754         0.401221
 H        -1.689560         0.673751         1.451921
 H         0.204842         1.347204        -1.001849
 H         1.971314         1.533850        -0.217145
 H         2.178254         0.378402         2.313016
 H         1.019679         1.601300         2.399795
