19
Iteration:  3888charge 0 multiplicity 1
 O         0.213098         0.079644         4.573294
 C         0.349819        -0.426296         3.192370
 C         0.249588        -1.882677         3.015219
 C        -0.879881        -0.914745         2.560720
 C        -0.947860        -0.482952         1.101386
 C         0.409950         0.211430         0.859677
 C         0.664693         1.150490        -0.212813
 O         1.302206        -0.099381        -0.285196
 C         1.112163         0.399048         2.208186
 H         0.752648        -0.424906         5.249347
 H         1.003392        -2.255183         2.281786
 H        -0.038962        -2.739005         3.774621
 H        -1.846695        -1.088095         3.101132
 H        -0.839397        -1.406085         0.612031
 H        -1.760785         0.118159         0.759690
 H        -0.073156         1.426376        -0.976186
 H         1.360356         2.054943        -0.060878
 H         2.130954        -0.004278         2.137213
 H         1.069036         1.419932         2.530313
