19
Iteration:  1320
 O         0.201399         0.091740         4.579853
 C         0.233903        -0.516836         3.168498
 C         0.174152        -1.958225         2.989982
 C        -0.860151        -0.974695         2.418036
 C        -0.983113        -0.173448         1.079498
 C         0.441190         0.340166         0.926518
 C         0.800361         1.131968        -0.230117
 O         1.275660        -0.280791        -0.150867
 C         1.173503         0.295716         2.247027
 H         1.136351         0.225559         4.917523
 H         0.907985        -2.414323         2.363138
 H        -0.273739        -2.470044         3.814847
 H        -1.912731        -1.129213         2.794386
 H        -1.400504        -0.578796         0.038027
 H        -1.708058         0.629398         1.313839
 H         0.232125         1.242282        -1.121194
 H         1.627694         1.886259         0.006753
 H         2.242438        -0.025020         1.926443
 H         1.258236         1.346710         2.612051
