19
Iteration:   672
 O         0.238963         0.060795         4.610226
 C         0.320187        -0.461280         3.195696
 C         0.190018        -1.820176         2.837555
 C        -0.930946        -0.885129         2.459208
 C        -0.948459        -0.199713         1.113619
 C         0.500404         0.290256         0.936744
 C         0.918327         1.022945        -0.214717
 O         1.139371        -0.358196        -0.197720
 C         1.162291         0.421032         2.299337
 H        -0.387662        -0.548837         4.967653
 H         0.809588        -2.225799         2.017713
 H        -0.122010        -2.626514         3.600715
 H        -1.828677        -0.972138         3.145017
 H        -0.893324        -0.956177         0.239578
 H        -1.757320         0.447077         0.944501
 H         0.088272         1.363452        -0.937286
 H         1.707923         1.810090        -0.086320
 H         2.118064        -0.048103         2.070863
 H         1.177789         1.528931         2.631334
