19
Iteration:  3541
 O         0.205522         0.112090         4.561099
 C         0.338999        -0.511037         3.257581
 C         0.044364        -2.020606         3.000227
 C        -0.914827        -0.827280         2.596171
 C        -0.886372        -0.405824         1.034889
 C         0.517226         0.237400         0.833835
 C         0.634238         1.152568        -0.241565
 O         1.403183        -0.119631        -0.230721
 C         1.122660         0.287488         2.231091
 H         1.103787         0.548263         4.679723
 H         0.476816        -2.574783         2.177238
 H        -0.082741        -2.453665         4.040225
 H        -1.827689        -0.769876         3.130100
 H        -1.048413        -1.288608         0.340725
 H        -1.640763         0.309847         0.826325
 H        -0.141859         1.469248        -0.963213
 H         1.383577         2.018220        -0.012983
 H         2.166605        -0.011522         2.234906
 H         1.103124         1.348312         2.434010
