19
Iteration:  4658
 O         0.276855        -0.127340         4.632515
 C         0.381133        -0.344747         3.198056
 C         0.358501        -1.773565         2.874048
 C        -0.823238        -1.038327         2.467713
 C        -0.856896        -0.560189         1.027038
 C         0.359148         0.266617         0.862498
 C         0.518743         1.053898        -0.252932
 O         1.290323        -0.186231        -0.123884
 C         1.016783         0.672851         2.323958
 H         0.740942         0.744885         4.678448
 H         0.969289        -2.315787         2.094562
 H         0.277492        -2.303019         3.866705
 H        -1.814433        -1.170223         2.900673
 H        -1.190070        -1.313483         0.350326
 H        -1.707249         0.224839         1.118087
 H        -0.068811         1.016934        -1.198613
 H         1.089907         1.874806        -0.212258
 H         2.117322         0.749838         2.353644
 H         0.570815         1.608950         2.630443
