19
Iteration:     6
 O         0.260044        -0.128727         4.568602
 C         0.341051        -0.403461         3.247789
 C         0.226743        -1.806013         2.727952
 C        -0.940107        -0.850360         2.500494
 C        -1.004636        -0.242747         1.121108
 C         0.414221         0.317140         0.952985
 C         0.895399         0.968710        -0.277522
 O         1.260245        -0.417644        -0.051349
 C         1.016348         0.613312         2.276614
 H         1.138451        -0.398900         4.958150
 H         0.777460        -2.039599         1.789807
 H         0.043086        -2.499590         3.559843
 H        -1.924605        -0.939235         2.989796
 H        -1.173649        -0.842263         0.198343
 H        -1.767511         0.649467         0.973684
 H         0.277010         1.052170        -1.194489
 H         1.652187         1.863019        -0.268338
 H         2.129098         0.508349         2.274822
 H         0.639370         1.645994         2.579155
