19
Iteration:  1437
 O         0.520759        -0.029213         4.547036
 C         0.297190        -0.508403         3.227945
 C         0.019311        -1.885626         2.725325
 C        -1.023001        -0.827127         2.436887
 C        -1.037475        -0.187223         1.086676
 C         0.490457         0.252900         0.910128
 C         0.815819         0.959760        -0.333413
 O         1.461720        -0.294988         0.067400
 C         0.901835         0.574035         2.310487
 H         0.453739        -0.705463         5.266996
 H         0.640435        -2.215769         1.939348
 H        -0.210570        -2.754255         3.345568
 H        -1.898972        -0.702165         3.183210
 H        -1.268766        -0.828721         0.267504
 H        -1.789743         0.594269         1.051654
 H         0.250991         0.732052        -1.279987
 H         1.483712         1.843054        -0.298246
 H         2.050569         0.613731         2.303088
 H         0.520915         1.496957         2.748122
