19
Iteration:   616charge 0 multiplicity 1
 O         0.304165        -0.018577         4.559462
 C         0.342395        -0.513775         3.195968
 C         0.080031        -1.984161         2.950362
 C        -0.900802        -0.831981         2.511844
 C        -0.993472        -0.212343         1.162424
 C         0.423810         0.298265         0.908114
 C         0.875775         1.079367        -0.340083
 O         1.342988        -0.289524        -0.178807
 C         1.128058         0.449157         2.267530
 H        -0.644983         0.300817         4.692947
 H         0.524708        -2.409611         2.049343
 H        -0.195701        -2.573905         3.821476
 H        -1.807669        -0.919543         3.124726
 H        -1.378191        -0.848414         0.317419
 H        -1.752573         0.478538         1.322688
 H         0.072750         1.278770        -1.134922
 H         1.598074         1.864596        -0.185327
 H         2.222513         0.248538         2.154992
 H         1.057491         1.515912         2.593790
