19
Iteration:  3906charge 0 multiplicity 1
 O         0.255340         0.127083         4.571932
 C         0.318689        -0.384858         3.219130
 C         0.236373        -1.902211         2.961218
 C        -0.878210        -1.014162         2.450913
 C        -0.849711        -0.570795         1.037207
 C         0.484936         0.297153         0.915110
 C         0.606811         1.202712        -0.251555
 O         1.160850        -0.177405        -0.200099
 C         1.216267         0.412141         2.317028
 H         0.319641        -0.561494         5.282106
 H         0.834549        -2.407175         2.271691
 H        -0.029886        -2.375924         3.821541
 H        -1.909432        -0.939012         2.884572
 H        -0.874087        -1.175654         0.070429
 H        -1.632210         0.246965         1.104188
 H        -0.257705         1.392243        -0.940538
 H         1.342683         1.986187        -0.248577
 H         2.252812         0.117144         2.120477
 H         1.178961         1.474681         2.615999
