19
Iteration:  1776charge 0 multiplicity 1
 O         0.351540        -0.139954         4.565616
 C         0.224689        -0.385758         3.202960
 C         0.093860        -1.852824         2.737407
 C        -1.048863        -0.854108         2.566268
 C        -0.948045        -0.288895         1.156346
 C         0.513733         0.260007         0.905633
 C         0.790910         1.019946        -0.352127
 O         1.454527        -0.299740        -0.046915
 C         1.023617         0.638708         2.287536
 H         0.674568        -0.950111         5.033143
 H         0.461825        -2.215909         1.759130
 H        -0.192459        -2.656985         3.495750
 H        -1.781889        -0.647130         3.273997
 H        -1.125870        -1.153364         0.580519
 H        -1.559781         0.520801         0.971385
 H         0.062704         0.921114        -1.158031
 H         1.562445         1.877034        -0.524936
 H         2.131295         0.688550         2.460672
 H         0.586155         1.631162         2.487129
