19
Iteration:  3415charge 0 multiplicity 1
 O         0.175751         0.009461         4.655695
 C         0.236842        -0.420280         3.243965
 C         0.283564        -1.849299         2.765577
 C        -0.918262        -1.005616         2.430040
 C        -0.941649        -0.101483         1.162888
 C         0.424527         0.343673         0.882953
 C         0.859764         0.993854        -0.363529
 O         1.213558        -0.408163        -0.056049
 C         1.126001         0.506096         2.249245
 H         1.031750        -0.197084         5.081781
 H         1.038780        -2.074702         1.998509
 H         0.117170        -2.806062         3.362277
 H        -1.782630        -1.342264         3.006968
 H        -1.300412        -0.669947         0.303307
 H        -1.701401         0.765576         1.364358
 H         0.026109         1.199844        -0.955897
 H         1.752799         1.601990        -0.247796
 H         2.188718         0.150363         2.162183
 H         1.048144         1.572452         2.601657
