19
Iteration:   487
 O         0.202460         0.010804         4.540839
 C         0.349381        -0.421798         3.228270
 C         0.377835        -1.846558         2.668002
 C        -0.885604        -0.933747         2.387633
 C        -0.985202        -0.123888         1.189212
 C         0.371656         0.430868         0.913781
 C         0.934601         0.859541        -0.331388
 O         1.117965        -0.468412         0.028911
 C         1.047167         0.597629         2.367291
 H         0.629825        -0.528401         5.194423
 H         1.099456        -2.091699         1.880894
 H         0.271417        -2.680609         3.304062
 H        -1.857921        -1.298951         2.668229
 H        -1.531008        -0.782123         0.425242
 H        -1.630176         0.763740         1.480400
 H         0.211827         1.075024        -1.126701
 H         1.700200         1.525412        -0.447780
 H         2.116028         0.436435         2.332048
 H         0.845890         1.583140         2.825474
