19
Iteration:  4342
 O         0.306030         0.012214         4.660476
 C         0.327481        -0.396452         3.252602
 C         0.263027        -1.942999         2.827001
 C        -0.852432        -1.073480         2.569934
 C        -0.889266        -0.442422         1.140066
 C         0.295228         0.384932         0.830258
 C         0.763454         1.080979        -0.328364
 O         1.275554        -0.247714        -0.139603
 C         0.912787         0.641689         2.249877
 H         1.193776         0.364058         4.588158
 H         0.882949        -2.331162         2.015493
 H         0.253447        -2.818258         3.547933
 H        -1.768227        -1.266858         3.104689
 H        -0.953727        -1.198293         0.295466
 H        -1.721631         0.209775         0.922066
 H        -0.000054         1.353948        -1.132575
 H         1.635848         1.831162        -0.164200
 H         1.953376         0.394451         2.111259
 H         0.876280         1.629115         2.610924
