19
Iteration:  1530charge 0 multiplicity 1
 O         0.161278        -0.018478         4.444578
 C         0.342846        -0.470058         3.168175
 C         0.309375        -1.850764         2.608792
 C        -0.860996        -0.942127         2.425966
 C        -0.920854        -0.046886         1.287223
 C         0.477344         0.375655         1.006007
 C         0.876987         0.913224        -0.317377
 O         1.141892        -0.474635         0.038455
 C         1.029693         0.591389         2.366086
 H         0.077222        -0.745160         5.101369
 H         0.995878        -2.126061         1.781043
 H         0.584864        -2.540659         3.497876
 H        -1.789445        -1.169166         2.873787
 H        -1.452167        -0.401437         0.302481
 H        -1.585002         0.813368         1.558006
 H         0.140528         0.980736        -1.174811
 H         1.849523         1.501508        -0.491189
 H         2.072785         0.522143         2.433897
 H         0.704266         1.630331         2.575713
