19
Iteration:  4066
 O         0.291406        -0.059183         4.582933
 C         0.409145        -0.344488         3.190821
 C         0.498613        -1.812031         2.585870
 C        -0.828690        -1.008850         2.480428
 C        -1.099085        -0.285793         1.108238
 C         0.231325         0.419062         0.987518
 C         0.818767         0.830756        -0.363834
 O         1.260035        -0.399231         0.090920
 C         0.882631         0.780864         2.325164
 H         0.723154        -0.753336         5.107631
 H         1.157882        -1.987075         1.656248
 H         0.394979        -2.681939         3.311775
 H        -1.594847        -1.469906         3.207278
 H        -1.402322        -0.954865         0.349549
 H        -1.809888         0.515120         1.147235
 H         0.333326         0.926538        -1.388232
 H         1.527650         1.630847        -0.287444
 H         1.953161         0.951161         2.293571
 H         0.446058         1.629977         2.780256
