19
Iteration:  1755charge 0 multiplicity 1
 O         0.419016        -0.012243         4.526189
 C         0.299391        -0.439784         3.174399
 C         0.023872        -1.896871         2.892551
 C        -1.028626        -0.881831         2.444238
 C        -0.900602        -0.304743         1.042985
 C         0.449925         0.320577         0.920081
 C         0.796614         1.007289        -0.284959
 O         1.407213        -0.238769        -0.056021
 C         1.017079         0.492465         2.321377
 H         0.586131        -0.790344         5.040325
 H         0.530190        -2.397228         2.051906
 H        -0.231815        -2.435702         3.871110
 H        -1.981557        -1.004176         2.869132
 H        -1.179652        -0.991378         0.260035
 H        -1.690925         0.595523         1.110452
 H         0.030869         1.143144        -1.056069
 H         1.402770         2.002613        -0.171762
 H         2.151434         0.337018         2.280797
 H         0.789130         1.420212         2.813989
