19
Iteration:  4631
 O         0.352690         0.002632         4.639274
 C         0.311036        -0.439081         3.227287
 C         0.446348        -1.889659         2.923860
 C        -0.900026        -1.061568         2.599792
 C        -0.943243        -0.510429         1.045594
 C         0.343403         0.316598         0.856011
 C         0.658117         1.123274        -0.291319
 O         1.278997        -0.153651        -0.200365
 C         0.989673         0.615125         2.271733
 H        -0.547455         0.367212         4.787392
 H         0.976490        -2.232428         2.048965
 H         0.598473        -2.689931         3.650962
 H        -1.845351        -1.185421         3.157323
 H        -1.060842        -1.464902         0.417073
 H        -1.867106         0.015049         0.817064
 H         0.009858         1.160886        -1.182913
 H         1.450080         2.029332        -0.481839
 H         2.044037         0.339050         2.265826
 H         0.785320         1.655718         2.629049
