19
Iteration:  3090
 O         0.295020         0.120706         4.554915
 C         0.239981        -0.421251         3.237071
 C         0.211146        -1.954572         2.940575
 C        -0.911851        -1.016999         2.430833
 C        -0.931115        -0.250642         1.106724
 C         0.483123         0.258481         0.893662
 C         0.824132         1.166272        -0.252370
 O         1.233681        -0.234934        -0.233070
 C         1.111445         0.347728         2.321139
 H        -0.109105        -0.444425         5.258553
 H         0.827058        -2.560632         2.170872
 H        -0.037317        -2.620446         3.815179
 H        -1.898679        -1.009146         2.948207
 H        -1.290215        -0.960610         0.264322
 H        -1.743255         0.554149         1.197703
 H         0.062242         1.404019        -0.984490
 H         1.754640         1.724199        -0.041244
 H         2.199899         0.170635         2.294017
 H         0.964548         1.453648         2.511637
