19
Iteration:  1812
 O         0.255502        -0.247509         4.646742
 C         0.283974        -0.342259         3.181137
 C         0.329935        -1.765024         2.725825
 C        -0.914555        -0.869078         2.439872
 C        -1.035120        -0.164262         1.082562
 C         0.430094         0.387549         0.883749
 C         0.938484         0.934863        -0.354826
 O         1.204451        -0.452167         0.100832
 C         0.985565         0.677355         2.299902
 H         1.182837        -0.572345         4.832453
 H         0.973056        -2.129308         1.883820
 H        -0.034818        -2.578961         3.318843
 H        -1.836070        -1.047353         3.075075
 H        -1.279978        -0.842002         0.249989
 H        -1.958967         0.556125         0.943221
 H         0.201041         1.006837        -1.239493
 H         1.785776         1.624593        -0.241865
 H         2.151899         0.629981         2.223030
 H         0.737423         1.656578         2.629668
