19
Iteration:  1713
 O         0.228075         0.073727         4.513405
 C         0.252624        -0.410546         3.232898
 C         0.192202        -1.855232         2.918915
 C        -0.983820        -0.939216         2.531325
 C        -0.881013        -0.405957         1.155850
 C         0.461384         0.297877         0.894961
 C         0.948730         1.177986        -0.164341
 O         1.180980        -0.225842        -0.294521
 C         1.121927         0.300250         2.273927
 H         0.095905        -0.620795         5.150899
 H         0.657871        -2.269051         2.031280
 H        -0.119045        -2.513840         3.745005
 H        -1.874478        -0.772856         3.099932
 H        -1.092603        -1.025770         0.255235
 H        -1.770769         0.443281         0.983743
 H         0.455726         1.662566        -1.003569
 H         1.868903         1.797580        -0.004982
 H         2.213350        -0.141472         2.279757
 H         1.179232         1.322397         2.554893
