19
Iteration:  1625charge 0 multiplicity 1
 O         0.306605        -0.078466         4.554824
 C         0.315019        -0.461021         3.240212
 C        -0.003633        -1.974719         2.971237
 C        -0.965822        -0.733284         2.569099
 C        -0.916700        -0.381474         1.022267
 C         0.424688         0.240610         0.839095
 C         0.814078         1.169297        -0.211048
 O         1.366037        -0.204114        -0.108779
 C         1.111497         0.425187         2.183141
 H         1.174513         0.119547         4.878774
 H         0.519483        -2.424964         2.169583
 H        -0.348148        -2.661157         3.788885
 H        -1.928642        -0.718384         2.924848
 H        -1.177001        -1.272750         0.452132
 H        -1.704911         0.309417         0.693531
 H         0.108410         1.371392        -0.998218
 H         1.533922         2.025704        -0.240700
 H         2.320963         0.344691         2.097487
 H         0.898426         1.436305         2.455193
