19
Iteration:  4372
 O         0.207945        -0.125991         4.527077
 C         0.426256        -0.414199         3.206673
 C         0.458940        -1.757807         2.808386
 C        -0.866950        -1.046617         2.482142
 C        -1.026695        -0.296256         1.160538
 C         0.340251         0.292708         0.853315
 C         0.716494         1.039991        -0.294138
 O         1.237650        -0.346334        -0.017302
 C         0.997540         0.615884         2.269057
 H         0.807537         0.681948         4.553494
 H         1.068238        -2.110556         1.919887
 H         0.281767        -2.347594         3.756680
 H        -1.574310        -1.303776         3.253802
 H        -1.285520        -0.875767         0.351165
 H        -1.761440         0.556481         1.071208
 H        -0.032323         1.194893        -1.008442
 H         1.613470         1.674031        -0.142918
 H         2.151333         0.688791         2.311472
 H         0.554126         1.606452         2.669174
