19
Iteration:  3244
 O         0.222346        -0.074943         4.590174
 C         0.295285        -0.402350         3.230915
 C         0.315480        -1.860296         2.798043
 C        -0.880660        -0.899038         2.436997
 C        -0.967451        -0.160201         1.073215
 C         0.427670         0.244985         0.937962
 C         0.817983         1.000534        -0.212275
 O         1.193196        -0.357193        -0.133268
 C         1.076473         0.469832         2.345542
 H         0.619179         0.791483         4.617796
 H         1.017323        -2.097018         2.012628
 H         0.184844        -2.568322         3.646288
 H        -1.883209        -1.181355         2.670090
 H        -1.230941        -0.737952         0.174126
 H        -1.522489         0.742105         1.249580
 H        -0.039854         1.337402        -0.874814
 H         1.648134         1.679915        -0.311612
 H         2.075735         0.062874         2.417150
 H         0.967142         1.577332         2.490809
