19
Iteration:  4428charge 0 multiplicity 1
 O         0.269469        -0.198801         4.623664
 C         0.280337        -0.408641         3.233468
 C         0.549730        -1.785371         2.711097
 C        -0.805791        -0.926039         2.454519
 C        -0.983381        -0.231230         1.092058
 C         0.285538         0.421635         0.936283
 C         0.781466         0.855076        -0.349047
 O         1.188532        -0.412545         0.038892
 C         0.914576         0.724669         2.266252
 H         1.002797         0.369726         4.862703
 H         1.044834        -1.866729         1.734215
 H         0.500866        -2.594823         3.518279
 H        -1.705895        -1.240109         2.956198
 H        -1.187997        -0.934592         0.336107
 H        -1.750038         0.558492         1.212104
 H         0.024716         0.883822        -1.142494
 H         1.503782         1.664253        -0.583375
 H         2.023869         0.875447         2.402551
 H         0.447399         1.677567         2.698342
