19
Iteration:  1474charge 0 multiplicity 1
 O         0.409823        -0.198155         4.539147
 C         0.296320        -0.342808         3.161365
 C         0.242225        -1.795054         2.718860
 C        -0.991986        -0.901078         2.489564
 C        -1.081053        -0.231940         1.121867
 C         0.373821         0.379529         0.932741
 C         1.023001         0.983013        -0.324607
 O         1.198181        -0.456238         0.089653
 C         0.992828         0.724244         2.306563
 H        -0.078330        -0.893982         4.963313
 H         0.776646        -2.111348         1.781169
 H         0.070787        -2.506731         3.546149
 H        -1.779233        -0.783147         3.172466
 H        -1.158188        -0.981245         0.196804
 H        -1.886545         0.521381         0.948334
 H         0.616987         1.044797        -1.353312
 H         2.061339         1.553370        -0.223680
 H         2.080100         0.495375         2.299110
 H         0.813506         1.762116         2.464600
