19
Iteration:   720
 O         0.471626        -0.038127         4.531427
 C         0.237224        -0.418829         3.204270
 C         0.040865        -1.853381         2.812829
 C        -1.042922        -0.889670         2.501635
 C        -0.980764        -0.202212         1.070592
 C         0.372040         0.302398         0.915028
 C         0.885816         0.962002        -0.248546
 O         1.418136        -0.346848        -0.038332
 C         1.011222         0.531474         2.273142
 H         0.996180        -0.802579         4.929813
 H         0.699383        -2.346907         2.104024
 H        -0.159946        -2.388289         3.695457
 H        -2.023126        -1.076978         2.840261
 H        -1.352528        -0.844817         0.267755
 H        -1.633845         0.758485         1.062173
 H         0.350466         1.077087        -1.192488
 H         1.581979         1.866384        -0.139859
 H         2.071220         0.730484         2.072229
 H         0.467120         1.428382         2.848809
