19
Iteration:  1328
 O         0.197331         0.067434         4.529539
 C         0.264906        -0.449791         3.251795
 C         0.161283        -1.928059         2.959308
 C        -0.898470        -1.019770         2.358437
 C        -0.950669        -0.165356         1.139234
 C         0.398028         0.344915         0.899784
 C         0.826474         1.135317        -0.206752
 O         1.297218        -0.291311        -0.168472
 C         1.131704         0.255482         2.235311
 H         1.072764         0.419365         4.805439
 H         1.065155        -2.201192         2.557390
 H        -0.173842        -2.477489         3.837558
 H        -1.862696        -1.252002         2.822559
 H        -1.478273        -0.550871         0.259876
 H        -1.468931         0.685931         1.577771
 H         0.132278         1.426159        -1.109324
 H         1.658742         1.827838        -0.213417
 H         2.195930        -0.158650         2.188888
 H         1.246205         1.211796         2.568250
