19
Iteration:  1255
 O         0.360773        -0.138054         4.682934
 C         0.289675        -0.336102         3.252934
 C         0.049784        -1.735450         2.939146
 C        -1.021922        -0.771092         2.425561
 C        -0.947559        -0.382295         1.032109
 C         0.500889         0.218419         0.874981
 C         0.804400         1.087703        -0.281977
 O         1.347508        -0.265471        -0.191432
 C         1.076259         0.436678         2.266020
 H         0.821784        -0.934681         4.885562
 H         0.722736        -2.215320         2.203664
 H        -0.318312        -2.396716         3.756326
 H        -1.978423        -0.955994         2.949303
 H        -1.141645        -1.246716         0.250558
 H        -1.712052         0.404325         0.891355
 H         0.023580         1.149288        -1.008459
 H         1.508458         1.955951        -0.204624
 H         2.241594         0.374079         2.299981
 H         0.992486         1.535792         2.730197
