19
Iteration:  4731charge 0 multiplicity 1
 O         0.364736        -0.058158         4.561034
 C         0.359471        -0.359437         3.213165
 C         0.609580        -1.732349         2.762535
 C        -0.775956        -1.051117         2.386129
 C        -0.974216        -0.428852         1.134379
 C         0.301899         0.265216         0.905444
 C         0.664183         1.037375        -0.246070
 O         1.211440        -0.346037         0.008553
 C         0.813717         0.682382         2.294904
 H        -0.494582         0.140751         4.960375
 H         1.310900        -2.018883         1.977516
 H         0.446535        -2.462820         3.542064
 H        -1.696722        -1.442785         2.841406
 H        -1.060775        -1.018040         0.242531
 H        -1.852885         0.216987         1.250376
 H         0.113646         1.058906        -1.190125
 H         1.311681         1.971734        -0.134683
 H         1.911954         0.831673         2.100799
 H         0.322329         1.650044         2.618713
