19
Iteration:  4258
 O         0.306664         0.130416         4.552627
 C         0.357637        -0.466608         3.270601
 C         0.353131        -1.942942         2.968829
 C        -0.876112        -1.068854         2.497087
 C        -0.876118        -0.432617         1.077397
 C         0.350723         0.370856         0.958229
 C         0.619225         1.172023        -0.310435
 O         1.246217        -0.185509        -0.249533
 C         1.088579         0.424328         2.283370
 H        -0.444429        -0.036934         5.169925
 H         1.148297        -2.251237         2.296719
 H         0.013656        -2.495406         3.914243
 H        -1.864323        -1.283084         2.905014
 H        -0.756530        -1.268683         0.266502
 H        -1.817398         0.064801         0.785737
 H        -0.270809         1.310633        -0.985411
 H         1.253166         1.999768        -0.113799
 H         2.119610         0.026186         2.170158
 H         1.081511         1.574516         2.519651
