19
Iteration:  3572charge 0 multiplicity 1
 O         0.195400         0.119730         4.485942
 C         0.310748        -0.431171         3.219960
 C         0.190231        -1.862642         3.039604
 C        -0.969895        -0.928100         2.496790
 C        -0.906408        -0.447606         1.027134
 C         0.482413         0.356384         0.955761
 C         0.792577         1.185959        -0.213868
 O         1.160893        -0.217333        -0.244496
 C         1.250578         0.306043         2.250829
 H         0.373625        -0.502584         5.191734
 H         0.825168        -2.373721         2.350474
 H         0.036146        -2.430312         4.012118
 H        -1.881356        -1.282339         2.943424
 H        -0.847717        -1.314577         0.293591
 H        -1.840929         0.124068         0.811109
 H        -0.056839         1.629423        -0.751934
 H         1.752283         1.709928        -0.104665
 H         2.271592        -0.086515         2.241827
 H         1.364296         1.380085         2.548636
