19
Iteration:   988
 O         0.151285         0.092400         4.526336
 C         0.236941        -0.418869         3.221065
 C         0.242470        -1.888492         2.907389
 C        -0.941564        -0.988380         2.394421
 C        -0.850657        -0.156488         1.153032
 C         0.560259         0.259146         0.934902
 C         0.803641         1.100265        -0.239578
 O         1.121046        -0.331762        -0.183292
 C         1.211404         0.353952         2.298486
 H         0.417213        -0.610460         5.147758
 H         0.980711        -2.157497         2.117402
 H         0.016470        -2.663969         3.746963
 H        -1.895764        -1.174268         2.780772
 H        -1.379223        -0.714869         0.355025
 H        -1.433395         0.789795         1.395344
 H         0.132400         1.555478        -0.891724
 H         1.737417         1.602590        -0.457615
 H         2.402695         0.180442         2.180986
 H         1.012936         1.316126         2.817674
