19
Iteration:  1168charge 0 multiplicity 1
 O         0.148835        -0.186878         4.728140
 C         0.229948        -0.316957         3.243703
 C         0.327973        -1.763268         2.711434
 C        -0.921353        -0.920893         2.468139
 C        -0.996999        -0.045426         1.161016
 C         0.464429         0.308472         0.909592
 C         0.995935         0.912875        -0.407724
 O         1.082264        -0.448503        -0.168646
 C         1.099563         0.571883         2.362817
 H         1.052014        -0.237422         5.042251
 H         1.126198        -1.809386         2.025400
 H         0.387213        -2.579386         3.450078
 H        -1.776133        -1.335866         2.911566
 H        -1.103312        -0.747509         0.287772
 H        -1.578325         0.852789         1.176259
 H         0.442401         1.161700        -1.300199
 H         1.900657         1.509625        -0.348350
 H         2.085834         0.172758         2.444263
 H         0.860104         1.636333         2.698131
