19
Iteration:  4412
 O         0.206961        -0.149204         4.680099
 C         0.403721        -0.442768         3.268956
 C         0.503238        -1.734879         2.638509
 C        -0.831130        -1.006810         2.499190
 C        -1.028436        -0.223710         1.165535
 C         0.400487         0.413123         0.904333
 C         0.760418         0.906032        -0.519051
 O         1.191755        -0.410364         0.009957
 C         0.896177         0.686865         2.390877
 H         0.651204         0.642048         5.000541
 H         1.339811        -1.946369         1.941822
 H         0.505344        -2.657375         3.098302
 H        -1.707910        -1.369893         3.074314
 H        -1.253329        -0.917905         0.268974
 H        -1.870933         0.519979         1.199645
 H         0.019969         1.021349        -1.358806
 H         1.592538         1.571627        -0.577814
 H         1.964690         0.628368         2.196743
 H         0.626890         1.701891         2.670088
