19
Iteration:   398
 O         0.548638         0.050568         4.505941
 C         0.241289        -0.443590         3.131185
 C         0.048224        -1.884143         2.823998
 C        -1.019106        -0.896986         2.436186
 C        -0.964394        -0.274715         1.059504
 C         0.414696         0.311910         0.936326
 C         0.774338         0.961892        -0.314392
 O         1.408072        -0.262471         0.063902
 C         1.022882         0.505006         2.345084
 H         0.153965        -0.707197         4.958241
 H         0.736744        -2.320783         2.147207
 H        -0.184229        -2.558092         3.666024
 H        -2.000831        -0.929078         2.993912
 H        -1.087724        -1.165990         0.350053
 H        -1.734577         0.522656         1.003264
 H        -0.000135         0.948900        -1.032463
 H         1.262390         1.852684        -0.467768
 H         2.081903         0.330177         2.357236
 H         0.772843         1.496853         2.617610
