19
Iteration:  3011charge 0 multiplicity 1
 O         0.384217        -0.076666         4.581116
 C         0.340078        -0.422386         3.200135
 C         0.158505        -1.944249         2.757982
 C        -0.947673        -0.912396         2.463799
 C        -1.029935        -0.145608         1.085764
 C         0.409714         0.448988         0.864552
 C         0.905873         0.923460        -0.395800
 O         1.349580        -0.376084         0.042542
 C         0.915530         0.620816         2.352919
 H         0.658304        -0.876106         5.082965
 H         0.894620        -2.328989         2.023894
 H        -0.053913        -2.718420         3.578818
 H        -1.834646        -1.069599         3.085217
 H        -1.498264        -0.866713         0.388378
 H        -1.681372         0.732531         1.301474
 H         0.236664         0.883121        -1.287551
 H         1.523448         1.845378        -0.556936
 H         2.020464         0.687685         2.469597
 H         0.483130         1.557554         2.708275
