19
Iteration:  2093charge 0 multiplicity 1
 O         0.333416        -0.056574         4.603633
 C         0.334270        -0.416465         3.235796
 C         0.126241        -1.823819         2.841194
 C        -0.971509        -0.805420         2.452893
 C        -0.953521        -0.383567         1.056727
 C         0.398125         0.244100         0.871731
 C         0.877922         1.154376        -0.183917
 O         1.305968        -0.345837        -0.116833
 C         1.024454         0.494173         2.239774
 H         0.935272        -0.736233         4.996042
 H         0.777591        -2.361906         2.128728
 H        -0.072906        -2.384499         3.779052
 H        -1.909659        -0.876214         2.911320
 H        -1.317276        -1.070729         0.282315
 H        -1.832133         0.308819         0.801792
 H         0.220131         1.443597        -0.962145
 H         1.613801         1.844113         0.111669
 H         2.102730         0.557832         2.209014
 H         0.729903         1.576753         2.506103
