19
Iteration:   101charge 0 multiplicity 1
 O         0.152667        -0.013499         4.544208
 C         0.336710        -0.411367         3.219458
 C         0.302428        -1.873653         2.656966
 C        -0.939257        -0.902335         2.501471
 C        -0.972592        -0.103125         1.197035
 C         0.468729         0.361584         0.949017
 C         0.881208         0.871922        -0.301911
 O         1.199293        -0.455675        -0.089612
 C         1.078989         0.592985         2.355168
 H         0.527891        -0.669373         5.145530
 H         0.951969        -1.949822         1.748346
 H         0.322754        -2.692351         3.427748
 H        -1.801684        -0.986897         3.205315
 H        -1.379077        -0.536957         0.323686
 H        -1.601756         0.738222         1.324857
 H         0.136003         1.134230        -0.974166
 H         1.759801         1.523855        -0.563385
 H         2.159609         0.298543         2.227034
 H         0.918414         1.636355         2.659307
