19
Iteration:  3844charge 0 multiplicity 1
 O         0.345667         0.010983         4.548177
 C         0.311534        -0.475420         3.246022
 C         0.237444        -1.885513         2.922936
 C        -0.945286        -0.980784         2.478607
 C        -0.893971        -0.460070         1.055463
 C         0.429993         0.284076         0.941105
 C         0.680369         1.126139        -0.219240
 O         1.273806        -0.179923        -0.172683
 C         1.059414         0.498967         2.255888
 H         0.685960         0.940303         4.457715
 H         0.834719        -2.651507         2.371662
 H        -0.108169        -2.418951         3.935542
 H        -1.962486        -1.088313         2.971566
 H        -0.935735        -1.249327         0.309848
 H        -1.781418         0.154919         0.897093
 H        -0.176542         1.323770        -0.908291
 H         1.420727         1.996530        -0.246005
 H         2.142708         0.278638         2.172341
 H         0.925233         1.551434         2.584199
