19
Iteration:   962
 O         0.149291         0.053537         4.672626
 C         0.309224        -0.415659         3.243578
 C         0.174185        -1.944307         2.916888
 C        -0.853840        -0.845573         2.465432
 C        -0.972279        -0.271243         1.094716
 C         0.462360         0.227291         0.880653
 C         0.920908         1.051006        -0.221061
 O         1.193398        -0.253621        -0.369341
 C         1.143769         0.421053         2.302345
 H         0.613536        -0.601345         5.223261
 H         0.880078        -2.340253         2.142412
 H        -0.119374        -2.595382         3.726828
 H        -1.792466        -0.801517         3.093809
 H        -1.290109        -1.051993         0.462083
 H        -1.799083         0.505208         1.164669
 H         0.327646         1.579350        -1.012059
 H         1.856528         1.608867        -0.106713
 H         2.167396         0.233802         2.238051
 H         0.961933         1.422716         2.738434
