19
Iteration:  2621
 O         0.170900        -0.218983         4.620056
 C         0.297166        -0.327275         3.229455
 C         0.107078        -1.801662         2.895281
 C        -0.909365        -0.765526         2.577074
 C        -0.879932        -0.365194         1.077364
 C         0.458739         0.255557         0.860048
 C         0.727234         1.114865        -0.304675
 O         1.313012        -0.290038        -0.119188
 C         1.188038         0.516930         2.172959
 H         1.017651        -0.389461         5.007146
 H         0.520714        -2.491716         2.168863
 H        -0.090035        -2.376219         3.833885
 H        -1.939017        -0.625985         3.145495
 H        -0.872473        -1.246303         0.424467
 H        -1.583732         0.285329         0.717863
 H         0.177255         1.230072        -1.241036
 H         1.482507         2.038194        -0.255385
 H         2.152970         0.108380         2.288070
 H         1.026620         1.503483         2.530947
