19
Iteration:  4881
 O         0.196443         0.010311         4.540038
 C         0.358989        -0.379589         3.193089
 C         0.521117        -1.807081         2.838112
 C        -0.806700        -1.182896         2.562548
 C        -0.923340        -0.566827         1.158104
 C         0.389713         0.338947         0.898233
 C         0.563186         1.090961        -0.286294
 O         1.285291        -0.178826        -0.136006
 C         0.911226         0.686304         2.272707
 H         0.880455        -0.263278         5.191537
 H         1.227773        -1.967789         2.065451
 H         0.647149        -2.525932         3.665847
 H        -1.687988        -1.483576         3.147426
 H        -0.957553        -1.277961         0.194527
 H        -1.920747        -0.069749         1.179145
 H        -0.043845         0.999409        -1.226933
 H         1.101261         2.077144        -0.372892
 H         1.973675         0.837021         2.350890
 H         0.406164         1.642456         2.425342
