19
Iteration:  2707charge 0 multiplicity 1
 O         0.235641         0.210983         4.427364
 C         0.276337        -0.483088         3.214750
 C         0.161074        -1.937824         3.064648
 C        -0.917805        -0.925167         2.496831
 C        -0.945566        -0.425670         1.102441
 C         0.410352         0.223621         0.851226
 C         0.877683         1.245202        -0.071888
 O         1.244376        -0.100864        -0.193638
 C         1.194518         0.167023         2.134449
 H        -0.348422        -0.279418         5.017099
 H         0.888846        -2.353724         2.426480
 H        -0.238287        -2.501876         3.930440
 H        -1.888348        -0.991662         3.139096
 H        -1.137994        -1.188957         0.319400
 H        -1.681366         0.392979         0.984286
 H         0.055987         1.501187        -0.773452
 H         1.734198         2.052573         0.083971
 H         2.086893        -0.467904         1.921705
 H         1.676807         1.143845         2.416240
