19
Iteration:  2321charge 0 multiplicity 1
 O         0.276990         0.032099         4.623418
 C         0.251053        -0.400483         3.269183
 C         0.157744        -1.837256         2.904878
 C        -1.029073        -0.865628         2.478030
 C        -0.938915        -0.413165         1.051646
 C         0.467162         0.209968         0.923696
 C         0.926615         1.128580        -0.157267
 O         1.192002        -0.240456        -0.334152
 C         1.155183         0.411518         2.317479
 H         1.153296        -0.041308         4.994091
 H         0.606855        -2.372282         2.003670
 H        -0.314199        -2.558681         3.586138
 H        -2.030056        -1.242911         2.919536
 H        -0.923495        -1.220078         0.263929
 H        -1.836248         0.179292         0.867080
 H         0.333143         1.720662        -0.957482
 H         1.852821         1.788379         0.045638
 H         2.236981         0.343966         2.269873
 H         1.040487         1.363042         2.648505
