19
Iteration:  1818charge 0 multiplicity 1
 O         0.246877        -0.222457         4.620609
 C         0.273229        -0.336954         3.145539
 C         0.325122        -1.758690         2.702828
 C        -0.894891        -0.911577         2.433177
 C        -1.042584        -0.147460         1.109264
 C         0.420631         0.414770         0.942999
 C         0.971737         0.928878        -0.373853
 O         1.169548        -0.474623         0.111625
 C         0.983708         0.658256         2.282996
 H         1.171520        -0.437986         4.737726
 H         0.928817        -2.066269         1.850579
 H         0.188751        -2.615430         3.440690
 H        -1.764077        -1.187207         2.939255
 H        -1.138921        -0.739294         0.180991
 H        -1.828704         0.553756         1.276393
 H         0.257723         1.064599        -1.113763
 H         1.865589         1.598800        -0.266254
 H         2.029844         0.535986         2.389837
 H         0.681244         1.698046         2.664769
