19
Iteration:   504charge 0 multiplicity 1
 O         0.162746        -0.037811         4.511959
 C         0.337420        -0.461932         3.165240
 C         0.326943        -1.946124         2.739851
 C        -0.846459        -0.999758         2.455552
 C        -1.027341        -0.034735         1.164628
 C         0.419896         0.432729         0.945810
 C         0.864958         0.920417        -0.393162
 O         1.175314        -0.444268         0.102025
 C         1.049779         0.630940         2.285717
 H         1.007495        -0.244699         4.921512
 H         0.995277        -2.280147         1.957911
 H         0.012698        -2.654526         3.574911
 H        -1.478801        -1.109798         3.383112
 H        -1.227443        -0.381786         0.171113
 H        -1.807134         0.654034         1.367289
 H         0.251984         0.877863        -1.286762
 H         1.916801         1.475569        -0.373703
 H         2.187415         0.638711         2.185426
 H         0.725872         1.659558         2.638340
