19
Iteration:  4278
 O         0.306990         0.067954         4.572551
 C         0.328783        -0.405694         3.223047
 C         0.283565        -1.940305         2.963423
 C        -0.884491        -0.991227         2.569187
 C        -0.867391        -0.541775         1.120200
 C         0.450282         0.260740         0.889752
 C         0.599100         1.146120        -0.379980
 O         1.264646        -0.063308        -0.243371
 C         1.097879         0.489398         2.324238
 H        -0.254586        -0.509755         5.074349
 H         0.879229        -2.075221         2.093677
 H         0.037179        -2.547840         3.854916
 H        -1.750953        -1.079492         3.190898
 H        -1.099746        -1.407210         0.326262
 H        -1.725354         0.083488         0.874888
 H        -0.290925         1.048695        -1.059799
 H         1.405507         1.932754        -0.470206
 H         2.136609         0.201324         2.257146
 H         0.939345         1.509445         2.792088
