19
Iteration:  4618charge 0 multiplicity 1
 O         0.324532         0.093258         4.630235
 C         0.371407        -0.407612         3.260698
 C         0.385611        -1.887706         2.864157
 C        -0.823370        -1.084115         2.537722
 C        -0.976237        -0.580767         1.125200
 C         0.312786         0.328218         0.862898
 C         0.709868         1.139855        -0.386019
 O         1.258822        -0.157717        -0.186428
 C         1.002328         0.506940         2.285906
 H        -0.548545        -0.196784         5.000243
 H         0.968856        -2.091794         2.012116
 H         0.331584        -2.480813         3.811752
 H        -1.728613        -1.290424         3.092018
 H        -0.993587        -1.263030         0.180264
 H        -1.794922         0.101763         1.135757
 H        -0.055179         1.382545        -1.199889
 H         1.339285         2.002386         0.101260
 H         2.087019         0.539297         2.140876
 H         0.786283         1.579087         2.738606
