19
Iteration:  2719
 O         0.219381         0.242276         4.471493
 C         0.303707        -0.433573         3.260986
 C         0.114270        -1.947411         3.017101
 C        -0.924765        -0.987594         2.552143
 C        -0.885566        -0.434438         1.063007
 C         0.508245         0.231108         0.930861
 C         0.810414         1.306708        -0.147181
 O         1.193394        -0.128750        -0.334525
 C         1.233902         0.136718         2.266971
 H        -0.542158        -0.063901         4.993130
 H         0.741385        -2.448416         2.285275
 H        -0.184851        -2.741358         3.757658
 H        -1.911387        -0.954280         3.096453
 H        -1.078313        -1.173243         0.268590
 H        -1.693669         0.250184         1.018474
 H         0.167792         1.805922        -0.934131
 H         1.876095         1.875007         0.005455
 H         2.097446        -0.530060         2.110149
 H         1.508649         1.144670         2.595636
