19
Iteration:  2640
 O         0.228721        -0.113650         4.662467
 C         0.402726        -0.408747         3.258777
 C        -0.005899        -1.822039         2.957634
 C        -0.989276        -0.773523         2.477106
 C        -0.856596        -0.484767         1.003381
 C         0.549084         0.284451         0.930719
 C         0.781291         1.073437        -0.300889
 O         1.256857        -0.207816        -0.287239
 C         1.153176         0.513169         2.319724
 H         0.931083        -0.525893         5.187909
 H         0.616962        -2.300591         2.194652
 H        -0.278654        -2.502325         3.700012
 H        -1.995631        -0.569369         3.065735
 H        -0.860409        -1.453314         0.483492
 H        -1.680216         0.185132         0.614849
 H        -0.172897         1.310269        -0.849361
 H         1.481007         2.029449        -0.344684
 H         2.252356         0.229696         2.199427
 H         1.029636         1.583521         2.706924
