19
Iteration:  2905
 O         0.198565         0.001669         4.518253
 C         0.272917        -0.447567         3.146568
 C         0.377230        -1.809675         2.720790
 C        -0.880517        -0.967682         2.385710
 C        -0.937873        -0.099478         1.180766
 C         0.541567         0.327528         0.958938
 C         0.770754         1.024662        -0.297088
 O         1.167416        -0.475736         0.004312
 C         0.997133         0.543680         2.336492
 H         0.703557        -0.596069         5.107813
 H         1.351420        -1.935178         2.169944
 H         0.199298        -2.645962         3.460431
 H        -1.806185        -1.296463         2.817622
 H        -1.208593        -0.615401         0.177016
 H        -1.676975         0.730264         1.379413
 H        -0.086422         1.110003        -0.914210
 H         1.773416         1.439743        -0.336731
 H         2.092728         0.407512         2.554645
 H         0.607912         1.552501         2.757624
