19
Iteration:  3701charge 0 multiplicity 1
 O         0.350569        -0.135870         4.542712
 C         0.370414        -0.310430         3.155847
 C         0.340985        -1.781067         2.621961
 C        -0.919691        -0.956256         2.582936
 C        -1.074693        -0.236874         1.075573
 C         0.344295         0.290762         0.942267
 C         0.870810         0.868285        -0.282149
 O         1.331310        -0.447128         0.082847
 C         0.830255         0.811415         2.308806
 H         0.943693        -0.804084         5.001077
 H         0.868913        -1.968909         1.685369
 H         0.422662        -2.645421         3.220058
 H        -1.720954        -1.334018         3.179695
 H        -1.530188        -0.739175         0.271562
 H        -1.670059         0.690023         1.255818
 H         0.339608         1.056551        -1.222472
 H         1.707461         1.492752        -0.239363
 H         1.886183         1.062421         2.179165
 H         0.202701         1.707078         2.528721
