19
Iteration:  3614charge 0 multiplicity 1
 O         0.256049         0.106168         4.645794
 C         0.296193        -0.457270         3.213184
 C         0.282101        -1.932696         2.824257
 C        -0.955761        -1.016478         2.561547
 C        -1.039975        -0.316658         1.168862
 C         0.478518         0.223475         0.895606
 C         0.815098         1.114007        -0.215980
 O         1.321319        -0.242512        -0.294609
 C         1.131770         0.421391         2.240909
 H        -0.677740         0.445341         4.629707
 H         0.863117        -2.415960         2.102628
 H         0.026059        -2.412698         3.776982
 H        -1.805150        -1.051733         3.249526
 H        -1.219975        -1.003562         0.343512
 H        -1.739226         0.571599         1.024355
 H         0.037793         1.384280        -0.945724
 H         1.560232         1.787856        -0.149534
 H         2.231526         0.368019         2.251964
 H         0.906105         1.500409         2.557518
