19
Iteration:  4358
 O         0.282081        -0.038427         4.577949
 C         0.342145        -0.424939         3.194053
 C         0.399003        -1.924161         2.820583
 C        -0.818339        -0.970202         2.500626
 C        -1.053170        -0.398146         1.104206
 C         0.351507         0.308375         0.942738
 C         0.796243         1.069007        -0.316509
 O         1.212999        -0.274089        -0.076351
 C         0.984386         0.613924         2.265969
 H         0.828803         0.642953         4.943495
 H         1.136725        -2.250926         2.048883
 H         0.209066        -2.571952         3.626465
 H        -1.788764        -1.166849         3.002028
 H        -1.262313        -1.185161         0.361061
 H        -1.901647         0.304826         1.288856
 H         0.220457         1.123639        -1.225089
 H         1.428832         1.904794        -0.268094
 H         2.100944         0.673484         2.215081
 H         0.590327         1.658140         2.566479
