19
Iteration:  2659charge 0 multiplicity 1
 O         0.332209         0.109352         4.588980
 C         0.220560        -0.454511         3.246394
 C        -0.001028        -1.969195         2.937188
 C        -0.987501        -0.830376         2.542712
 C        -0.782257        -0.411360         1.078834
 C         0.535181         0.259816         0.854663
 C         0.736770         1.184516        -0.242237
 O         1.305997        -0.191416        -0.317568
 C         1.125332         0.341725         2.360159
 H         0.692426        -0.635767         5.140808
 H         0.531408        -2.448453         2.088748
 H        -0.274046        -2.536426         3.796384
 H        -1.953544        -0.942442         2.969727
 H        -0.741943        -1.312271         0.425967
 H        -1.758908         0.199833         0.792761
 H        -0.001408         1.397126        -1.010680
 H         1.486769         1.875581        -0.125431
 H         2.246122         0.281179         2.409986
 H         0.907291         1.422583         2.554494
