19
Iteration:  1987charge 0 multiplicity 1
 O         0.252900         0.080023         4.605190
 C         0.302578        -0.445718         3.299787
 C         0.049989        -1.899040         3.003802
 C        -0.947441        -0.873249         2.456617
 C        -0.910380        -0.375467         0.987971
 C         0.435303         0.303921         0.855371
 C         0.862486         1.175273        -0.197994
 O         1.224248        -0.216912        -0.303289
 C         1.200502         0.320990         2.323969
 H         0.707279        -0.547118         5.215894
 H         0.554126        -2.342122         2.191075
 H        -0.236762        -2.564042         3.810241
 H        -1.859466        -1.187822         2.865845
 H        -0.801540        -1.230451         0.351358
 H        -1.642379         0.298353         0.844212
 H         0.079489         1.545370        -1.044799
 H         1.660499         1.933102         0.001730
 H         2.308472        -0.023609         2.081018
 H         1.181469         1.263613         2.816444
