19
Iteration:  4434charge 0 multiplicity 1
 O         0.285298        -0.200290         4.587073
 C         0.275860        -0.376958         3.201446
 C         0.503307        -1.752664         2.696174
 C        -0.800000        -0.980546         2.467566
 C        -1.032131        -0.248231         1.101511
 C         0.328871         0.405255         0.950265
 C         0.758259         0.875408        -0.358052
 O         1.211912        -0.422530         0.068658
 C         0.947478         0.767367         2.297985
 H         1.118462         0.227637         4.885885
 H         1.101394        -2.202834         1.888550
 H         0.426643        -2.471236         3.466942
 H        -1.727476        -1.284306         2.962026
 H        -1.296081        -0.999987         0.294337
 H        -1.848493         0.514135         1.193247
 H         0.014695         1.030131        -1.172373
 H         1.540248         1.642327        -0.348845
 H         2.021634         0.944043         2.315019
 H         0.417453         1.704208         2.472024
