19
Iteration:  4743
 O         0.338780        -0.112626         4.602748
 C         0.326876        -0.372856         3.209506
 C         0.598018        -1.749908         2.729004
 C        -0.755915        -1.137220         2.496562
 C        -0.987749        -0.425959         1.069438
 C         0.286318         0.330314         0.917038
 C         0.717740         0.972240        -0.354990
 O         1.197286        -0.310746        -0.012563
 C         0.812011         0.772082         2.332466
 H        -0.302335         0.643440         4.586480
 H         1.313814        -1.799644         1.918135
 H         0.718460        -2.569484         3.489877
 H        -1.593941        -1.417704         3.137863
 H        -1.312108        -1.091256         0.351738
 H        -1.746868         0.389647         1.170898
 H         0.073409         1.109602        -1.251490
 H         1.430999         1.748460        -0.107864
 H         1.913085         0.763154         2.527198
 H         0.470677         1.747995         2.672386
