19
Iteration:  2251
 O         0.307638        -0.043711         4.524557
 C         0.282140        -0.466392         3.211929
 C         0.139712        -1.880947         2.764987
 C        -1.003259        -0.907890         2.507666
 C        -0.904379        -0.188329         1.194296
 C         0.497582         0.358618         0.924583
 C         0.761504         0.933240        -0.393067
 O         1.338947        -0.312261        -0.010170
 C         1.070424         0.571139         2.287068
 H         0.731619        -0.755580         5.020767
 H         0.560989        -2.149512         1.792881
 H        -0.057771        -2.710021         3.472463
 H        -1.954762        -1.043838         2.943593
 H        -1.169208        -0.913365         0.400887
 H        -1.510218         0.760767         1.195217
 H         0.000518         1.020011        -1.150559
 H         1.445556         1.804552        -0.465110
 H         2.187124         0.519068         2.522789
 H         0.807050         1.555889         2.792500
