19
Iteration:  4557charge 0 multiplicity 1
 O         0.135766        -0.032044         4.688907
 C         0.332628        -0.388069         3.294568
 C         0.431424        -1.955919         2.771222
 C        -0.798992        -1.009607         2.554947
 C        -0.949477        -0.446393         1.173724
 C         0.396538         0.329607         0.889572
 C         0.652345         1.146365        -0.396398
 O         1.262836        -0.275784        -0.159761
 C         1.053566         0.647689         2.223101
 H         0.681619         0.791263         4.803959
 H         1.058054        -2.499513         2.045360
 H         0.333464        -2.775639         3.516657
 H        -1.654434        -1.549274         2.998167
 H        -1.255971        -1.159831         0.450794
 H        -1.752503         0.382116         1.161115
 H        -0.126176         1.325056        -1.048888
 H         1.369517         1.941943        -0.286632
 H         2.099289         0.348637         1.995534
 H         0.955690         1.660163         2.496893
