19
Iteration:   924
 O         0.335903        -0.067092         4.522480
 C         0.242230        -0.389765         3.178450
 C         0.027986        -1.884842         2.851848
 C        -0.999268        -0.793080         2.527274
 C        -0.943990        -0.402031         1.072022
 C         0.391904         0.309150         0.953492
 C         0.820062         1.067629        -0.245691
 O         1.352607        -0.257313        -0.075863
 C         1.154540         0.431689         2.292450
 H         1.341118         0.024140         4.606305
 H         0.479070        -2.425970         2.028001
 H        -0.130366        -2.349637         3.881772
 H        -1.937521        -0.648976         2.980098
 H        -1.065465        -1.269592         0.285652
 H        -1.621572         0.363225         0.688408
 H         0.069597         1.310372        -1.025175
 H         1.574170         1.968919        -0.092331
 H         2.254957         0.069971         2.158087
 H         1.201917         1.505962         2.512865
