19
Iteration:  4209
 O         0.246940         0.144106         4.601212
 C         0.380429        -0.421144         3.223732
 C         0.422495        -1.930988         2.911730
 C        -0.880282        -1.040525         2.586413
 C        -0.972794        -0.494088         1.159082
 C         0.385523         0.222227         0.960095
 C         0.757999         1.149179        -0.237257
 O         1.239368        -0.130144        -0.306758
 C         1.052365         0.468541         2.194241
 H        -0.600059        -0.119785         4.895689
 H         0.916909        -2.177871         1.983583
 H         0.193065        -2.692215         3.633597
 H        -1.890012        -1.281137         3.021004
 H        -1.179244        -1.297182         0.433547
 H        -1.848171         0.197151         1.051317
 H        -0.032562         1.341831        -0.952095
 H         1.502954         2.023928        -0.122471
 H         2.115083         0.353916         2.077508
 H         0.808263         1.422969         2.413154
