19
Iteration:   404charge 0 multiplicity 1
 O         0.538936         0.040395         4.465262
 C         0.290583        -0.444770         3.164740
 C         0.047764        -1.901689         2.822304
 C        -0.995899        -0.892821         2.462955
 C        -0.925561        -0.286916         1.070685
 C         0.422670         0.348018         0.919240
 C         0.752150         0.962605        -0.329843
 O         1.397385        -0.287716         0.073643
 C         0.940530         0.537742         2.339691
 H         0.060498        -0.631408         5.042673
 H         0.669441        -2.377429         1.978926
 H        -0.354789        -2.533225         3.614179
 H        -1.862548        -0.989173         3.078365
 H        -1.106457        -0.983398         0.269143
 H        -1.647743         0.515928         0.918470
 H        -0.059864         0.840848        -1.143935
 H         1.513833         1.856834        -0.343593
 H         2.057408         0.288835         2.339770
 H         0.883728         1.534574         2.950510
