19
Iteration:  2614charge 0 multiplicity 1
 O         0.184657        -0.179588         4.572101
 C         0.341083        -0.333073         3.212261
 C         0.152292        -1.841304         2.874856
 C        -0.996573        -0.818272         2.587461
 C        -0.933915        -0.322021         1.124594
 C         0.489313         0.276536         0.870197
 C         0.785090         1.101397        -0.325338
 O         1.339909        -0.293891        -0.108691
 C         1.099079         0.527217         2.202695
 H         1.009406        -0.312006         5.085857
 H         0.682688        -2.348328         2.042042
 H        -0.176680        -2.515038         3.735797
 H        -1.782749        -0.751839         3.215284
 H        -1.045771        -1.254391         0.524685
 H        -1.692356         0.506970         0.718988
 H         0.163152         1.067926        -1.200604
 H         1.352958         1.914718        -0.134059
 H         2.118531         0.011277         2.217538
 H         1.244602         1.595795         2.542044
