19
Iteration:   803
 O         0.199347        -0.038309         4.509751
 C         0.264031        -0.423451         3.248405
 C         0.397891        -1.880058         2.663137
 C        -0.879041        -0.981401         2.392217
 C        -0.969897        -0.006027         1.244381
 C         0.429486         0.382614         0.900783
 C         0.896152         0.875544        -0.337939
 O         1.172314        -0.499484         0.034435
 C         0.976317         0.638350         2.351656
 H         0.844877        -0.510394         5.053152
 H         1.254707        -2.059402         1.882361
 H         0.046182        -2.745783         3.226976
 H        -1.847799        -1.168200         2.875567
 H        -1.592583        -0.370573         0.346409
 H        -1.516332         0.849476         1.654246
 H         0.262905         1.117510        -1.222143
 H         1.843571         1.519334        -0.386171
 H         2.101675         0.503560         2.352466
 H         0.775810         1.620597         2.684481
