19
Iteration:   515
 O         0.180530        -0.146808         4.491182
 C         0.431275        -0.411627         3.154395
 C         0.284571        -1.897454         2.789743
 C        -0.888209        -0.953848         2.441496
 C        -1.018561        -0.102466         1.169516
 C         0.384625         0.413217         0.901021
 C         0.907159         0.923390        -0.351888
 O         1.220851        -0.428413         0.108967
 C         1.028774         0.644051         2.270687
 H         0.943698         0.214112         4.931481
 H         0.743911        -2.456422         1.989126
 H         0.096417        -2.609073         3.652760
 H        -1.849318        -0.885691         3.028982
 H        -1.504904        -0.684994         0.443428
 H        -1.604542         0.742170         1.460882
 H         0.110960         0.981836        -1.103615
 H         1.719193         1.682254        -0.653061
 H         2.157807         0.599660         2.233909
 H         0.712950         1.650898         2.639823
