19
Iteration:  2139charge 0 multiplicity 1
 O         0.278159        -0.190688         4.604222
 C         0.276665        -0.402886         3.209650
 C         0.190215        -1.808134         2.702127
 C        -0.964150        -0.926608         2.468866
 C        -0.950785        -0.132930         1.163730
 C         0.443582         0.420792         0.942910
 C         0.800288         0.889548        -0.446705
 O         1.347744        -0.371709         0.029449
 C         1.010358         0.652672         2.333994
 H         1.088390        -0.542496         5.069091
 H         0.790301        -1.999693         1.840382
 H         0.062519        -2.569493         3.428098
 H        -1.799811        -1.118164         3.165798
 H        -1.277303        -0.668905         0.250065
 H        -1.771427         0.636843         1.029276
 H         0.185299         0.653188        -1.344668
 H         1.532602         1.649510        -0.626267
 H         2.117355         0.466310         2.460241
 H         0.888721         1.604257         2.824317
