19
Iteration:  2066charge 0 multiplicity 1
 O         0.296082         0.132428         4.501735
 C         0.229714        -0.498478         3.240757
 C         0.092963        -1.974862         2.909011
 C        -1.039086        -1.012072         2.494901
 C        -0.939857        -0.319216         1.152246
 C         0.449084         0.347957         0.905008
 C         0.890419         1.163522        -0.291294
 O         1.303664        -0.225801        -0.183963
 C         1.116488         0.342547         2.312744
 H         1.125435        -0.256098         4.857608
 H         0.854437        -2.327146         2.209349
 H        -0.061028        -2.574166         3.791950
 H        -2.007349        -0.994161         3.103002
 H        -1.190111        -0.944181         0.294711
 H        -1.745121         0.351819         1.018592
 H         0.306862         1.559946        -1.213343
 H         1.679665         2.028326        -0.161311
 H         2.236610         0.119421         2.266419
 H         1.109287         1.365326         2.787395
