19
Iteration:  4294
 O         0.292009         0.037098         4.606840
 C         0.361622        -0.402520         3.281570
 C         0.259344        -1.851919         2.909195
 C        -0.910506        -0.970959         2.523345
 C        -0.882406        -0.526203         1.113002
 C         0.451984         0.232880         0.857505
 C         0.533887         1.130625        -0.253194
 O         1.334639        -0.149887        -0.190905
 C         1.109589         0.550488         2.167486
 H         0.122480        -0.792115         5.117845
 H         0.715759        -2.601830         2.184339
 H         0.188895        -2.468560         3.812654
 H        -1.910512        -1.079587         3.019809
 H        -0.897855        -1.291066         0.416436
 H        -1.763255         0.165724         0.946126
 H        -0.158962         1.093684        -1.074165
 H         0.976679         2.073424        -0.039083
 H         2.247545         0.525070         2.160556
 H         0.885786         1.666101         2.334817
