19
Iteration:  1388
 O         0.173836        -0.078437         4.598502
 C         0.332925        -0.382954         3.191512
 C         0.169768        -1.855856         2.833400
 C        -0.934690        -0.753724         2.537350
 C        -0.945628        -0.342449         1.056419
 C         0.466974         0.300802         0.904517
 C         0.862398         1.103691        -0.242850
 O         1.189242        -0.335623        -0.131123
 C         1.203325         0.475096         2.291267
 H         0.661275        -0.723256         5.097975
 H         0.675739        -2.475183         2.015977
 H        -0.062904        -2.546343         3.665234
 H        -1.852541        -0.885899         3.037827
 H        -1.106438        -1.110663         0.251182
 H        -1.703967         0.415136         0.718780
 H         0.212427         1.267631        -1.043769
 H         1.830039         1.619750        -0.193481
 H         2.271388         0.371747         2.312659
 H         0.906035         1.585600         2.525576
