19
Iteration:  3618
 O         0.267334         0.081349         4.614722
 C         0.307950        -0.453671         3.186793
 C         0.272979        -1.940056         2.851740
 C        -0.956862        -1.003820         2.559206
 C        -1.023843        -0.290402         1.173726
 C         0.486017         0.226066         0.901447
 C         0.812816         1.095923        -0.242953
 O         1.314799        -0.245319        -0.263980
 C         1.087390         0.447681         2.279552
 H        -0.561269         0.553667         4.495708
 H         0.900009        -2.404185         1.982500
 H         0.109576        -2.534293         3.757190
 H        -1.874264        -1.000669         3.130136
 H        -1.204184        -1.034064         0.302011
 H        -1.744861         0.510768         1.112714
 H        -0.042681         1.140529        -0.932701
 H         1.609747         1.984995        -0.053826
 H         2.183636         0.359135         2.222346
 H         0.987533         1.488657         2.580113
