19
Iteration:  3601charge 0 multiplicity 1
 O         0.214773         0.107917         4.611719
 C         0.343354        -0.397099         3.310718
 C         0.206816        -1.868773         2.938945
 C        -0.859441        -0.934288         2.511939
 C        -0.955526        -0.412165         1.107691
 C         0.431434         0.183185         0.841670
 C         0.847286         1.167595        -0.206937
 O         1.233112        -0.227922        -0.324621
 C         1.142893         0.372743         2.226017
 H        -0.623981        -0.037619         5.069039
 H         0.925142        -2.172424         2.217438
 H         0.005286        -2.732644         3.569677
 H        -1.801583        -1.329539         2.984862
 H        -1.392085        -1.079499         0.419805
 H        -1.684261         0.447012         1.242484
 H         0.151220         1.625261        -0.936705
 H         1.646993         1.753473         0.111983
 H         2.203863         0.065104         2.240949
 H         1.033502         1.476249         2.442254
