19
Iteration:  4388
 O         0.190790        -0.155279         4.596752
 C         0.318676        -0.315028         3.129686
 C         0.489494        -1.827220         2.723480
 C        -0.803800        -1.021360         2.488229
 C        -0.979979        -0.263951         1.212639
 C         0.384298         0.326302         0.950060
 C         0.738755         0.945691        -0.286554
 O         1.213192        -0.392533        -0.047596
 C         0.966025         0.707980         2.271579
 H         0.574203         0.703921         4.910762
 H         1.162785        -2.073829         1.919028
 H         0.636206        -2.676251         3.370867
 H        -1.766728        -1.244386         2.988831
 H        -1.440500        -0.749850         0.247978
 H        -1.648296         0.548023         1.496090
 H        -0.043833         0.946026        -1.171742
 H         1.436805         1.795449        -0.346416
 H         2.012536         0.566883         2.165793
 H         0.754353         1.732589         2.491731
