19
Iteration:   455
 O         0.313451        -0.114958         4.639979
 C         0.253968        -0.339367         3.240501
 C         0.406773        -1.786224         2.724138
 C        -0.975637        -0.808316         2.474756
 C        -0.992904        -0.190430         1.137705
 C         0.347244         0.261278         0.863917
 C         0.955936         0.923861        -0.280077
 O         1.184062        -0.468806        -0.091093
 C         1.043216         0.659214         2.293836
 H        -0.049084        -0.939182         5.045647
 H         1.044075        -1.870026         1.840390
 H         0.440923        -2.511670         3.497396
 H        -1.875974        -1.189344         2.883728
 H        -1.532913        -0.877411         0.460499
 H        -1.743568         0.657404         1.068393
 H         0.178074         1.027216        -1.054919
 H         1.744891         1.526702         0.031597
 H         2.092984         0.621725         2.321938
 H         0.785659         1.676704         2.391766
