19
Iteration:  3359charge 0 multiplicity 1
 O         0.392953        -0.256894         4.621179
 C         0.292875        -0.368384         3.189014
 C         0.212369        -1.773934         2.642729
 C        -1.019408        -0.812894         2.512884
 C        -1.015437        -0.155536         1.124969
 C         0.385900         0.257104         0.814372
 C         0.958864         0.901679        -0.362124
 O         1.316627        -0.436163         0.115127
 C         0.869106         0.732466         2.306147
 H         1.328995        -0.293179         4.841419
 H         0.790067        -2.186580         1.786871
 H        -0.072146        -2.483624         3.481314
 H        -1.797081        -1.038934         3.147443
 H        -1.587541        -0.672661         0.335420
 H        -1.560510         0.858949         1.359291
 H         0.488612         0.874605        -1.276294
 H         1.792771         1.631205        -0.449365
 H         1.996809         0.668751         2.382808
 H         0.561041         1.777662         2.604957
