19
Iteration:  4870
 O         0.202991        -0.065196         4.541335
 C         0.288418        -0.335700         3.160268
 C         0.598456        -1.826507         2.855233
 C        -0.780319        -1.165997         2.571164
 C        -0.911772        -0.539847         1.090941
 C         0.335765         0.247062         0.927309
 C         0.577505         1.117752        -0.287316
 O         1.307975        -0.201720        -0.079886
 C         0.848621         0.728673         2.236414
 H         1.156554         0.170940         4.668183
 H         1.046212        -2.242933         1.993840
 H         0.719747        -2.340028         3.821821
 H        -1.647047        -1.108425         3.234959
 H        -1.059399        -1.339727         0.216388
 H        -1.720616         0.228339         1.104805
 H        -0.321863         1.180682        -0.949426
 H         1.322592         1.948631        -0.155616
 H         1.919367         0.817540         2.149609
 H         0.432143         1.671080         2.607275
