19
Iteration:  1908charge 0 multiplicity 1
 O         0.266907        -0.177726         4.667762
 C         0.294531        -0.417724         3.230588
 C         0.202221        -1.760329         2.783539
 C        -0.969586        -0.821923         2.448547
 C        -0.892491        -0.251133         1.084459
 C         0.470422         0.318503         0.904194
 C         0.835039         0.987874        -0.379835
 O         1.256641        -0.356188        -0.050412
 C         0.998399         0.623351         2.303830
 H         0.958169        -0.708547         5.112029
 H         0.867254        -2.225872         1.954363
 H        -0.078287        -2.509187         3.565486
 H        -1.899393        -1.026325         3.078570
 H        -1.046577        -0.902128         0.202879
 H        -1.591853         0.543668         0.900285
 H        -0.092477         0.946046        -1.060022
 H         1.729539         1.668578        -0.376059
 H         2.134194         0.405248         2.276523
 H         0.883535         1.632605         2.692396
