19
Iteration:  2499
 O         0.266549        -0.213553         4.559400
 C         0.306440        -0.398134         3.144118
 C         0.274580        -1.815411         2.622328
 C        -0.978178        -0.824224         2.446767
 C        -0.985907        -0.094961         1.093076
 C         0.440553         0.357203         0.991795
 C         0.806680         0.799948        -0.351577
 O         1.333785        -0.450211         0.057819
 C         0.992805         0.785351         2.452549
 H         1.102804        -0.554061         4.963488
 H         0.874307        -2.081644         1.801535
 H         0.244674        -2.552107         3.392972
 H        -1.864599        -1.176371         2.952860
 H        -1.475046        -0.726794         0.349041
 H        -1.497871         0.862731         1.182324
 H        -0.051236         0.691785        -1.131471
 H         1.676152         1.494931        -0.522065
 H         2.037609         0.652481         2.420027
 H         0.570377         1.711480         2.657025
