19
Iteration:    36charge 0 multiplicity 1
 O         0.462652        -0.257785         4.626515
 C         0.213026        -0.292320         3.244727
 C         0.080872        -1.760910         2.698387
 C        -0.987235        -0.736014         2.581644
 C        -1.009361        -0.406728         1.110873
 C         0.450302         0.208412         0.889106
 C         1.000051         0.998471        -0.356472
 O         1.332390        -0.355598        -0.017411
 C         0.842640         0.712208         2.276354
 H         1.347513        -0.659617         4.667475
 H         0.631825        -2.150826         1.769866
 H        -0.049930        -2.461764         3.524730
 H        -1.991162        -0.870033         3.043568
 H        -1.226379        -1.261761         0.511038
 H        -1.724729         0.497335         0.814223
 H         0.352852         1.193689        -1.223304
 H         1.935258         1.742815        -0.245388
 H         1.983221         0.729221         2.401412
 H         0.445794         1.796224         2.387989
