19
Iteration:  3898
 O         0.231717         0.105455         4.531954
 C         0.297706        -0.391578         3.304635
 C         0.220991        -1.893715         2.974827
 C        -0.851204        -0.964385         2.514344
 C        -0.885223        -0.517196         1.040911
 C         0.421410         0.271151         0.894513
 C         0.643535         1.197400        -0.231878
 O         1.228316        -0.153400        -0.251928
 C         1.208369         0.395771         2.243850
 H         0.554097        -0.693838         4.974124
 H         0.990148        -2.269258         2.308735
 H        -0.107382        -2.579578         3.860422
 H        -1.750872        -1.085705         3.197667
 H        -1.019788        -1.288417         0.354343
 H        -1.787157         0.025450         0.854538
 H        -0.140494         1.195980        -0.992215
 H         1.293278         2.115339        -0.012801
 H         2.279314         0.219358         2.234322
 H         1.166396         1.396096         2.561933
