19
Iteration:  1633
 O         0.290048        -0.047899         4.538948
 C         0.323850        -0.450536         3.202203
 C        -0.045181        -1.939740         2.984338
 C        -0.963268        -0.864612         2.521001
 C        -0.934917        -0.385854         1.080921
 C         0.431956         0.315585         0.843639
 C         0.824970         1.175366        -0.322512
 O         1.351444        -0.163021        -0.097235
 C         1.133706         0.360173         2.239989
 H         1.163457        -0.019017         4.903704
 H         0.656327        -2.453956         2.329664
 H        -0.221888        -2.468230         3.877681
 H        -1.889758        -0.620092         3.072221
 H        -0.956484        -1.272978         0.460786
 H        -1.737842         0.461676         0.890322
 H         0.121616         1.237346        -1.112135
 H         1.532106         1.982355        -0.114824
 H         2.146959         0.039132         2.051300
 H         1.172436         1.390423         2.699242
