19
Iteration:  3482charge 0 multiplicity 1
 O         0.422333         0.020449         4.571569
 C         0.285769        -0.417092         3.247317
 C         0.057274        -1.851535         2.914555
 C        -0.939310        -0.840464         2.498914
 C        -0.881899        -0.499116         1.034980
 C         0.416064         0.304372         0.934346
 C         0.821868         1.123910        -0.314840
 O         1.213454        -0.210243        -0.161405
 C         1.133982         0.394445         2.299789
 H        -0.493996         0.050352         4.877978
 H         0.776020        -2.398948         2.260502
 H        -0.347075        -2.489221         3.647689
 H        -1.893715        -0.696559         3.147824
 H        -0.564632        -1.346987         0.445954
 H        -1.850617        -0.053877         0.533141
 H         0.082661         1.537346        -1.018920
 H         1.635369         1.706421        -0.077114
 H         2.211560         0.152759         2.215974
 H         1.060628         1.430710         2.745421
