19
Iteration:  4945charge 0 multiplicity 1
 O         0.164320        -0.067904         4.550884
 C         0.327651        -0.367778         3.165804
 C         0.586698        -1.843267         2.894998
 C        -0.685340        -1.144453         2.521997
 C        -0.919360        -0.627613         1.135948
 C         0.331049         0.267518         0.934130
 C         0.538790         1.145865        -0.249908
 O         1.261646        -0.157846        -0.161912
 C         0.916761         0.709687         2.237950
 H         0.379329         0.878773         4.524262
 H         1.268995        -2.165067         2.144340
 H         0.744572        -2.422647         3.821743
 H        -1.534104        -1.208575         3.217513
 H        -1.039888        -1.388608         0.313928
 H        -1.723713         0.081573         1.160596
 H        -0.201986         1.104750        -1.103706
 H         1.084176         2.159274        -0.263943
 H         1.944512         0.587506         2.516211
 H         0.611854         1.724239         2.475791
