19
Iteration:  4717
 O         0.371127         0.016761         4.588771
 C         0.329942        -0.371032         3.189497
 C         0.522058        -1.823927         2.779685
 C        -0.776879        -1.140699         2.516692
 C        -1.055909        -0.425203         1.063486
 C         0.317048         0.326446         0.907488
 C         0.670076         1.056890        -0.246096
 O         1.270010        -0.280900         0.000129
 C         0.899031         0.704209         2.193780
 H        -0.381097        -0.541308         4.902889
 H         1.293950        -2.054996         2.044454
 H         0.440719        -2.516118         3.575282
 H        -1.574890        -1.655296         3.088891
 H        -1.261298        -1.297568         0.301020
 H        -1.887461         0.252285         0.988634
 H        -0.186368         1.071573        -0.921843
 H         1.594562         1.816145        -0.275384
 H         1.978043         0.900792         2.299257
 H         0.376650         1.760040         2.446807
