19
Iteration:  4145charge 0 multiplicity 1
 O         0.374537        -0.021554         4.578370
 C         0.361979        -0.424212         3.249547
 C         0.389893        -1.910242         2.737429
 C        -0.906034        -0.923911         2.528315
 C        -0.966953        -0.406675         1.178048
 C         0.364814         0.285893         0.881654
 C         0.650419         1.013879        -0.407803
 O         1.311596        -0.227293        -0.030488
 C         0.964062         0.674688         2.301887
 H        -0.473914        -0.360843         4.955408
 H         0.873169        -2.238979         1.880607
 H         0.317162        -2.663632         3.492773
 H        -1.888102        -1.137741         3.019138
 H        -1.095221        -1.287175         0.473535
 H        -1.661972         0.377263         1.194297
 H         0.203335         0.783063        -1.335117
 H         1.199045         1.974689        -0.212875
 H         2.054416         0.532673         2.316450
 H         0.712953         1.719228         2.547739
