19
Iteration:  4074
 O         0.345776        -0.032292         4.574784
 C         0.381373        -0.434075         3.205023
 C         0.546365        -1.778048         2.634981
 C        -0.861164        -0.974074         2.426341
 C        -1.160063        -0.300797         1.114487
 C         0.272349         0.415298         0.914498
 C         0.854033         0.875645        -0.376481
 O         1.220267        -0.413052         0.118895
 C         0.880956         0.763412         2.365337
 H         0.559154        -0.827959         5.124716
 H         1.180835        -1.986416         1.662762
 H         0.512146        -2.633916         3.316209
 H        -1.663625        -1.294827         3.041680
 H        -1.162038        -1.004292         0.292750
 H        -2.067707         0.400010         1.200407
 H         0.189369         0.907379        -1.268486
 H         1.656605         1.636167        -0.273461
 H         1.937069         1.004626         2.273533
 H         0.341932         1.543186         2.850754
