19
Iteration:   424
 O         0.439879        -0.038193         4.577879
 C         0.323063        -0.476498         3.183306
 C         0.107131        -1.956666         2.788125
 C        -0.974681        -0.862082         2.521452
 C        -0.971130        -0.268881         1.113143
 C         0.388010         0.371188         0.887390
 C         0.898779         0.949122        -0.372475
 O         1.288545        -0.345086         0.020813
 C         1.039420         0.681742         2.285532
 H        -0.162065        -0.585332         5.135669
 H         0.653719        -2.337890         1.894182
 H         0.058619        -2.593155         3.652704
 H        -1.921213        -0.878830         3.014719
 H        -1.125919        -1.065840         0.431177
 H        -1.815135         0.455464         1.078188
 H         0.133044         1.025451        -1.295338
 H         1.657184         1.822789        -0.404473
 H         2.115010         0.818335         2.270044
 H         0.543376         1.640163         2.494558
