19
Iteration:  4768
 O         0.174907        -0.172837         4.633805
 C         0.391874        -0.375643         3.223244
 C         0.590692        -1.709063         2.686691
 C        -0.739995        -1.107434         2.499531
 C        -1.034981        -0.416572         1.263080
 C         0.351405         0.401356         0.871085
 C         0.706130         0.953089        -0.454907
 O         1.285630        -0.290890         0.033870
 C         0.792652         0.777424         2.240626
 H         0.976806         0.369739         4.791083
 H         1.278067        -1.960395         1.846877
 H         0.495694        -2.538686         3.422214
 H        -1.660465        -1.409346         3.005511
 H        -1.149466        -1.212586         0.503755
 H        -2.067398         0.043382         1.363279
 H         0.056743         0.906843        -1.349095
 H         1.291657         1.843280        -0.414487
 H         1.877788         0.860566         2.373258
 H         0.343974         1.659709         2.553051
