19
Iteration:   372charge 0 multiplicity 1
 O         0.355573        -0.018440         4.638958
 C         0.305093        -0.374686         3.227582
 C         0.093286        -1.762089         2.868412
 C        -1.011700        -0.864862         2.549181
 C        -0.950476        -0.361637         1.058591
 C         0.423202         0.203141         0.837851
 C         0.819356         1.055228        -0.304340
 O         1.392482        -0.301948        -0.156467
 C         1.011876         0.515547         2.303947
 H         0.608333        -0.893830         4.936356
 H         0.708747        -2.214706         2.001673
 H        -0.159071        -2.563121         3.565885
 H        -1.888103        -1.010352         3.140067
 H        -1.207097        -1.178533         0.392576
 H        -1.594598         0.510390         0.944102
 H         0.185125         1.330180        -1.115192
 H         1.505555         1.942189        -0.125991
 H         2.053165         0.072329         2.186919
 H         1.042360         1.633415         2.583843
