19
Iteration:  3695charge 0 multiplicity 1
 O         0.338808        -0.171732         4.546678
 C         0.356420        -0.326007         3.230036
 C         0.319920        -1.767476         2.617969
 C        -0.909502        -0.932778         2.601130
 C        -1.089510        -0.237212         1.120095
 C         0.401384         0.271970         0.909453
 C         0.880757         0.902652        -0.339281
 O         1.314342        -0.426141         0.071127
 C         0.817362         0.801065         2.285862
 H         1.086589        -0.612381         4.975955
 H         0.761692        -1.989925         1.598482
 H         0.550850        -2.621357         3.336643
 H        -1.825496        -1.346888         3.096038
 H        -1.400941        -1.007778         0.277547
 H        -1.629709         0.732999         1.072303
 H         0.206817         0.946866        -1.215741
 H         1.836309         1.532944        -0.201640
 H         1.900800         1.049659         2.457158
 H         0.246849         1.754882         2.347396
