19
Iteration:  4362
 O         0.255190        -0.064929         4.573657
 C         0.383751        -0.407767         3.147222
 C         0.415817        -1.854658         2.828578
 C        -0.832469        -0.977896         2.492729
 C        -1.073441        -0.377225         1.126322
 C         0.345049         0.288735         0.909184
 C         0.777845         1.068334        -0.306129
 O         1.212720        -0.289603        -0.052445
 C         1.011380         0.594197         2.291100
 H         0.857983         0.695367         4.808811
 H         1.127258        -2.312166         2.100593
 H         0.282317        -2.634103         3.630087
 H        -1.742943        -1.255375         2.998055
 H        -1.278249        -1.089458         0.365052
 H        -1.894374         0.375148         1.190829
 H         0.170118         1.094020        -1.199700
 H         1.517582         1.933592        -0.277664
 H         2.120732         0.744153         2.293903
 H         0.521573         1.535359         2.607876
