19
Iteration:  3290charge 0 multiplicity 1
 O         0.348113        -0.233745         4.564298
 C         0.382485        -0.380013         3.166978
 C         0.259340        -1.784853         2.734434
 C        -0.947565        -0.852227         2.533162
 C        -1.052473        -0.212038         1.157478
 C         0.447250         0.449135         0.890084
 C         0.971611         0.932629        -0.332464
 O         1.214982        -0.468013         0.012842
 C         0.960320         0.662520         2.282695
 H        -0.543340        -0.400339         4.850367
 H         0.706680        -2.204284         1.878971
 H         0.109566        -2.444754         3.548975
 H        -1.835021        -0.867904         3.279961
 H        -1.227857        -1.003976         0.349545
 H        -1.710843         0.664918         1.053650
 H         0.250470         1.188320        -1.148859
 H         1.806564         1.573582        -0.392223
 H         2.046245         0.705749         2.089150
 H         0.651628         1.650079         2.795449
