19
Iteration:  2055charge 0 multiplicity 1
 O         0.205142         0.111540         4.511143
 C         0.290522        -0.518720         3.220308
 C         0.099059        -1.956531         2.943986
 C        -0.940459        -0.933329         2.493481
 C        -0.961122        -0.315751         1.128006
 C         0.494458         0.362996         0.884595
 C         0.849759         1.184796        -0.279943
 O         1.280254        -0.211428        -0.171489
 C         1.163343         0.275026         2.254311
 H         0.956547         0.190479         5.077791
 H         0.710976        -2.422603         2.165714
 H        -0.116712        -2.583762         3.789428
 H        -1.990736        -1.117335         2.903035
 H        -1.145157        -1.037719         0.344202
 H        -1.590846         0.468660         1.332428
 H        -0.068988         1.278878        -0.978234
 H         1.696341         1.949128        -0.042942
 H         2.195819        -0.213219         2.298328
 H         1.142948         1.335039         2.654221
