19
Iteration:  4619
 O         0.325961         0.089372         4.637078
 C         0.375178        -0.410443         3.252699
 C         0.391749        -1.889604         2.868247
 C        -0.837110        -1.080625         2.547300
 C        -0.973304        -0.579866         1.110782
 C         0.306591         0.331536         0.863023
 C         0.705367         1.141878        -0.391791
 O         1.264932        -0.160136        -0.189638
 C         1.003625         0.513572         2.289964
 H        -0.568671        -0.142223         5.018297
 H         0.948214        -2.107116         2.001332
 H         0.387784        -2.491389         3.804600
 H        -1.751790        -1.288500         3.102158
 H        -1.003439        -1.274055         0.175235
 H        -1.803949         0.088116         1.141150
 H        -0.050757         1.376234        -1.190872
 H         1.356864         2.004773         0.099226
 H         2.090053         0.523612         2.175671
 H         0.790905         1.554239         2.751720
