19
Iteration:  2918
 O         0.219746        -0.007335         4.545224
 C         0.320724        -0.440373         3.240024
 C         0.364927        -1.859461         2.634152
 C        -0.875225        -1.013166         2.357559
 C        -0.960252        -0.085627         1.135787
 C         0.429268         0.378137         1.002109
 C         0.890958         0.856509        -0.298584
 O         1.156201        -0.461132        -0.032122
 C         0.992783         0.660478         2.425786
 H         0.873078        -0.511466         5.063097
 H         0.997485        -2.227769         1.789829
 H         0.159109        -2.609100         3.479661
 H        -1.802866        -1.303163         2.974879
 H        -1.349003        -0.577980         0.201482
 H        -1.559532         0.802163         1.353807
 H         0.097962         1.127369        -1.099577
 H         1.601680         1.730932        -0.432154
 H         2.069655         0.912540         2.489007
 H         0.442552         1.611892         2.733271
