19
Iteration:  4103
 O         0.501753        -0.058591         4.574964
 C         0.244807        -0.348164         3.174896
 C         0.463174        -1.758398         2.702102
 C        -0.875049        -1.109999         2.442024
 C        -1.013215        -0.345246         1.122925
 C         0.288470         0.345102         0.896267
 C         0.826930         0.900305        -0.289405
 O         1.200401        -0.385604         0.022198
 C         0.850175         0.823301         2.338123
 H        -0.056884        -0.600469         5.100756
 H         0.979290        -2.182929         1.918041
 H         0.403932        -2.378618         3.527294
 H        -1.739189        -1.571923         2.864986
 H        -1.238756        -0.871536         0.124063
 H        -1.744894         0.465483         1.191295
 H         0.308055         1.120286        -1.179456
 H         1.594912         1.638231         0.084354
 H         1.945594         0.952167         2.189661
 H         0.403058         1.875478         2.707577
