19
Iteration:   876charge 0 multiplicity 1
 O         0.305029        -0.151068         4.587416
 C         0.324026        -0.411159         3.223466
 C         0.038068        -1.867285         2.914278
 C        -0.983646        -0.853981         2.568641
 C        -0.981424        -0.267496         1.132149
 C         0.498222         0.288510         0.864195
 C         0.858110         1.001442        -0.348923
 O         1.373224        -0.305393        -0.182039
 C         1.010899         0.611079         2.276812
 H         1.198659        -0.301432         4.867507
 H         0.535384        -2.172998         1.940010
 H        -0.098748        -2.582818         3.695718
 H        -1.952008        -0.870512         3.165042
 H        -1.306709        -0.901452         0.337863
 H        -1.679080         0.649818         1.053485
 H         0.247140         1.061093        -1.247387
 H         1.550301         1.791072        -0.332392
 H         2.171947         0.467728         2.333154
 H         0.818278         1.569362         2.856068
