19
Iteration:  4312charge 0 multiplicity 1
 O         0.326352        -0.007436         4.552467
 C         0.344366        -0.363226         3.161978
 C         0.264434        -1.823323         2.950332
 C        -0.852666        -0.923866         2.540524
 C        -0.944402        -0.533339         1.025363
 C         0.388225         0.174640         0.916335
 C         0.607570         1.099545        -0.239989
 O         1.339903        -0.152099        -0.161890
 C         0.983946         0.561262         2.275695
 H         0.830013        -0.699635         5.007785
 H         1.012924        -2.184801         2.304141
 H         0.040587        -2.628572         3.704641
 H        -1.760543        -0.947804         3.140918
 H        -0.991717        -1.497173         0.353256
 H        -1.654781         0.267734         0.838579
 H        -0.250958         1.334698        -0.954290
 H         1.235201         1.972818        -0.236856
 H         2.067116         0.419744         2.213727
 H         0.823465         1.646671         2.536610
