19
Iteration:  3620charge 0 multiplicity 1
 O         0.274612         0.062297         4.590239
 C         0.318959        -0.450755         3.180763
 C         0.264477        -1.941274         2.867451
 C        -0.949853        -0.990580         2.550562
 C        -1.005797        -0.286916         1.168087
 C         0.485024         0.229850         0.903813
 C         0.813355         1.088253        -0.255282
 O         1.309185        -0.247349        -0.242443
 C         1.065014         0.463445         2.297238
 H        -0.530189         0.641179         4.458722
 H         0.873494        -2.354586         1.986178
 H         0.164757        -2.620776         3.725173
 H        -1.929876        -1.002352         3.085822
 H        -1.208450        -1.002710         0.339896
 H        -1.752883         0.486540         1.173428
 H        -0.068300         1.060519        -0.942345
 H         1.567355         2.025775        -0.036443
 H         2.157051         0.315741         2.223592
 H         1.007489         1.488763         2.591763
