19
Iteration:   788
 O         0.144488        -0.172623         4.624067
 C         0.406118        -0.426917         3.137610
 C         0.295301        -1.824489         2.695757
 C        -0.880926        -0.883317         2.442794
 C        -1.034141        -0.054222         1.169176
 C         0.415462         0.343317         0.917288
 C         0.930607         0.892682        -0.372069
 O         1.200145        -0.469518         0.068278
 C         1.035154         0.658309         2.249736
 H         0.969687        -0.378435         5.052888
 H         0.935649        -2.154662         1.900661
 H         0.301384        -2.497199         3.571267
 H        -1.693953        -1.239612         3.148652
 H        -1.534469        -0.435693         0.312817
 H        -1.545867         0.975454         1.466613
 H         0.210200         0.905955        -1.192281
 H         1.686765         1.636204        -0.387937
 H         2.193639         0.803709         2.297376
 H         0.451801         1.607625         2.595023
