19
Iteration:  4616charge 0 multiplicity 1
 O         0.320337         0.099872         4.613404
 C         0.361561        -0.402939         3.276839
 C         0.371854        -1.882342         2.861899
 C        -0.793826        -1.091248         2.517154
 C        -0.977943        -0.580753         1.151691
 C         0.327196         0.318084         0.863405
 C         0.717502         1.138382        -0.366581
 O         1.244805        -0.152204        -0.179249
 C         0.998228         0.501918         2.275584
 H        -0.486876        -0.308315         4.957053
 H         1.046381        -2.086796         2.020855
 H         0.217428        -2.466923         3.790657
 H        -1.690777        -1.296144         3.076981
 H        -0.983920        -1.226678         0.242521
 H        -1.807429         0.144164         1.112725
 H        -0.030572         1.380282        -1.193362
 H         1.285371         1.970726         0.055087
 H         2.086129         0.555570         2.072692
 H         0.781258         1.587246         2.680327
