19
Iteration:  2312
 O         0.291157        -0.048991         4.627991
 C         0.236285        -0.353865         3.180750
 C         0.098093        -1.839917         2.932015
 C        -1.003530        -0.900002         2.518479
 C        -0.930839        -0.399445         1.067914
 C         0.497867         0.288371         0.875357
 C         0.915779         1.125832        -0.206071
 O         1.255984        -0.256770        -0.313325
 C         1.100695         0.473395         2.338818
 H         1.209132        -0.167792         4.865827
 H         0.506501        -2.328853         2.049988
 H        -0.024630        -2.521784         3.755722
 H        -2.024804        -0.961623         3.021783
 H        -0.900768        -1.377984         0.534130
 H        -1.839936         0.251862         0.881752
 H         0.063922         1.555821        -0.835473
 H         1.804781         1.691458         0.031935
 H         2.023260        -0.075189         2.304850
 H         0.960363         1.523764         2.585149
