19
Iteration:  1962
 O         0.402698         0.047407         4.486814
 C         0.243361        -0.431677         3.131756
 C        -0.013883        -1.937724         3.002854
 C        -1.020527        -0.897139         2.473617
 C        -0.969684        -0.392893         1.059712
 C         0.439400         0.252418         0.830360
 C         0.866929         1.185629        -0.192281
 O         1.371846        -0.193974        -0.074536
 C         1.090553         0.419690         2.222726
 H         0.788547        -0.754515         4.940486
 H         0.693000        -2.511055         2.272506
 H        -0.112960        -2.517574         3.978918
 H        -1.956384        -0.845639         3.108818
 H        -1.011452        -1.278368         0.425674
 H        -1.695534         0.467762         1.028013
 H         0.196566         1.317144        -1.073080
 H         1.489850         1.995105         0.180984
 H         2.150587         0.165812         2.173909
 H         0.941009         1.360407         2.737229
