19
Iteration:  1201charge 0 multiplicity 1
 O         0.164221        -0.036006         4.506703
 C         0.415226        -0.444982         3.140821
 C         0.148734        -1.958423         2.751396
 C        -0.887474        -0.822982         2.525834
 C        -1.011373        -0.137841         1.165075
 C         0.424213         0.263935         0.934623
 C         0.892366         1.018602        -0.227804
 O         1.230353        -0.391320        -0.045087
 C         1.085767         0.526864         2.250586
 H         0.973470        -0.060087         5.010490
 H         0.802549        -2.305627         1.935695
 H         0.097440        -2.627584         3.647544
 H        -1.729955        -0.899049         3.202698
 H        -1.274530        -0.754935         0.268872
 H        -1.718003         0.673925         1.039812
 H         0.353519         1.165215        -1.121905
 H         1.727541         1.684333         0.049879
 H         2.159838         0.470338         2.077699
 H         0.983243         1.567429         2.739063
