19
Iteration:  4818charge 0 multiplicity 1
 O         0.449333        -0.032918         4.558140
 C         0.231692        -0.345465         3.247573
 C         0.554354        -1.828286         2.684671
 C        -0.798186        -1.101506         2.544817
 C        -0.922339        -0.526401         1.104960
 C         0.313929         0.336845         0.929682
 C         0.667677         0.994248        -0.399742
 O         1.260524        -0.225841         0.028299
 C         0.756059         0.778287         2.346536
 H        -0.436490        -0.174299         4.959146
 H         1.273463        -2.019879         1.906691
 H         0.570732        -2.584134         3.515331
 H        -1.703018        -1.607805         2.817065
 H        -1.026921        -1.212532         0.252339
 H        -1.814070         0.117384         1.125337
 H         0.163840         0.860282        -1.398224
 H         1.279149         1.876868        -0.401077
 H         1.874754         0.888483         2.247668
 H         0.338160         1.731738         2.821723
