19
Iteration:  4298
 O         0.298746         0.022044         4.608760
 C         0.347734        -0.372172         3.259294
 C         0.285164        -1.864662         2.928790
 C        -0.902257        -0.940252         2.496463
 C        -0.872042        -0.518526         1.111104
 C         0.427575         0.243027         0.847366
 C         0.519527         1.113788        -0.191249
 O         1.356502        -0.175015        -0.195930
 C         1.094807         0.570545         2.153510
 H         0.282291        -0.814293         5.087203
 H         0.647754        -2.484161         2.064542
 H         0.041310        -2.379909         3.853801
 H        -1.841174        -1.072739         2.993566
 H        -1.027227        -1.297117         0.307352
 H        -1.775364         0.061916         0.939209
 H        -0.136675         0.939953        -1.039961
 H         1.049476         2.106404         0.100317
 H         2.159919         0.509536         2.075319
 H         0.826425         1.532627         2.471345
