19
Iteration:  1566charge 0 multiplicity 1
 O         0.237165        -0.104835         4.605768
 C         0.355196        -0.419826         3.263149
 C         0.192499        -1.849314         2.800939
 C        -0.906546        -0.896635         2.420856
 C        -1.001384        -0.182591         1.061688
 C         0.347837         0.396628         0.890941
 C         0.900684         1.028202        -0.354118
 O         1.245029        -0.341613        -0.014998
 C         1.094621         0.478559         2.294442
 H         0.863502        -0.621883         5.190305
 H         0.979688        -2.216616         2.137666
 H         0.008732        -2.476431         3.675340
 H        -1.920001        -0.953116         2.956479
 H        -1.249369        -0.934004         0.307448
 H        -1.849059         0.653419         1.182029
 H         0.243553         1.039375        -1.228722
 H         1.735129         1.647164        -0.333693
 H         2.115191         0.201000         2.197442
 H         1.064424         1.569605         2.653417
