19
Iteration:   915charge 0 multiplicity 1
 O         0.410464        -0.048565         4.511441
 C         0.309187        -0.432561         3.197733
 C        -0.034051        -1.876501         2.862855
 C        -1.065454        -0.784494         2.503919
 C        -0.942923        -0.393441         0.972886
 C         0.427942         0.339818         0.964788
 C         0.786134         1.022678        -0.252132
 O         1.387308        -0.262405        -0.065877
 C         1.157712         0.453609         2.341947
 H         1.339337         0.189058         4.826476
 H         0.524308        -2.293391         2.091073
 H        -0.355792        -2.581621         3.644963
 H        -2.044419        -0.831191         3.061885
 H        -1.060981        -1.193370         0.132535
 H        -1.706666         0.363875         0.896368
 H        -0.087265         1.093326        -0.999930
 H         1.269125         2.065354        -0.147438
 H         2.169008         0.154650         2.318282
 H         1.039281         1.483337         2.667189
