19
Iteration:  3286charge 0 multiplicity 1
 O         0.340506        -0.235404         4.584700
 C         0.363516        -0.379161         3.206853
 C         0.262940        -1.791676         2.738281
 C        -0.936099        -0.840289         2.527330
 C        -1.037060        -0.207641         1.151288
 C         0.439040         0.416117         0.891800
 C         0.983059         0.902900        -0.370230
 O         1.214639        -0.447991        -0.044609
 C         0.954091         0.685820         2.313078
 H        -0.626271        -0.245013         4.844852
 H         0.661991        -2.223405         1.792396
 H         0.196491        -2.469771         3.657914
 H        -1.749320        -0.979612         3.203398
 H        -1.327533        -0.907051         0.395188
 H        -1.837810         0.534983         1.150904
 H         0.250679         1.303116        -1.148000
 H         1.874247         1.626107        -0.238326
 H         2.020700         0.669988         2.081558
 H         0.815628         1.607122         2.842986
