19
Iteration:  4473
 O         0.471796        -0.015130         4.548071
 C         0.292675        -0.368946         3.176810
 C         0.444212        -1.930731         2.676188
 C        -0.888253        -0.917889         2.558662
 C        -1.112191        -0.324556         1.132648
 C         0.302567         0.351635         0.881381
 C         0.804598         0.944185        -0.370829
 O         1.360628        -0.311645         0.100131
 C         0.771185         0.646645         2.265383
 H         0.324448        -0.830909         5.034910
 H         1.085265        -2.000425         1.759489
 H         0.244980        -2.633670         3.495772
 H        -1.635608        -1.320389         3.271519
 H        -1.104735        -1.117432         0.348361
 H        -1.983175         0.331528         1.110432
 H         0.274115         1.179007        -1.389772
 H         1.479176         1.775094        -0.145575
 H         1.872588         0.843687         2.416786
 H         0.261893         1.625599         2.611156
