19
Iteration:  3884
 O         0.208989         0.069962         4.594081
 C         0.370084        -0.431651         3.188612
 C         0.281999        -1.901668         3.007822
 C        -0.919346        -0.897347         2.569555
 C        -0.959734        -0.502583         1.133577
 C         0.419095         0.191738         0.846134
 C         0.675976         1.155527        -0.217020
 O         1.330031        -0.083335        -0.291780
 C         1.066432         0.392653         2.201569
 H         0.824621        -0.236505         5.277217
 H         0.865087        -2.300617         2.226681
 H         0.033719        -2.532826         3.744544
 H        -1.903968        -0.990997         3.046331
 H        -0.815174        -1.428826         0.516926
 H        -1.757652         0.199837         0.802500
 H        -0.097965         1.504855        -0.958896
 H         1.394090         1.931779        -0.064242
 H         2.053060        -0.016773         2.018705
 H         1.070707         1.438448         2.508255
