19
Iteration:  3077charge 0 multiplicity 1
 O         0.272243         0.156647         4.618698
 C         0.251849        -0.477208         3.319068
 C         0.174930        -1.931000         2.819811
 C        -0.879140        -0.957315         2.490078
 C        -0.890477        -0.331069         1.090080
 C         0.489339         0.279531         0.885265
 C         0.881532         1.146107        -0.208580
 O         1.153386        -0.327761        -0.285600
 C         1.095420         0.451090         2.311115
 H        -0.100794        -0.530369         5.175202
 H         1.043809        -1.974965         2.077932
 H        -0.116123        -2.849393         3.490233
 H        -1.894647        -1.349032         2.891208
 H        -1.151772        -0.821278         0.136995
 H        -1.554591         0.550356         1.183755
 H         0.161758         1.423061        -1.025883
 H         1.592236         2.080432        -0.221119
 H         2.121895         0.046507         2.418891
 H         1.113168         1.429899         2.780934
