19
Iteration:  2607charge 0 multiplicity 1
 O         0.199933        -0.107896         4.562375
 C         0.328349        -0.406819         3.185835
 C         0.160007        -1.856441         2.846819
 C        -0.999470        -0.835502         2.562127
 C        -0.985708        -0.303759         1.144842
 C         0.461706         0.289571         0.878641
 C         0.833643         1.037413        -0.328777
 O         1.367352        -0.273866        -0.109666
 C         1.080946         0.516703         2.282189
 H         1.065941        -0.284851         5.039095
 H         0.721162        -2.150951         1.962619
 H        -0.009710        -2.524687         3.623622
 H        -1.878579        -0.912292         3.273576
 H        -1.234040        -1.101801         0.438052
 H        -1.767831         0.452487         1.016019
 H         0.021458         1.052587        -1.122300
 H         1.539615         1.921883        -0.148988
 H         2.115182         0.198248         2.032713
 H         1.300454         1.587834         2.505697
