19
Iteration:  3336charge 0 multiplicity 1
 O         0.507768        -0.101029         4.555564
 C         0.212703        -0.423190         3.228329
 C         0.169484        -1.808294         2.612417
 C        -1.087454        -0.883058         2.449997
 C        -1.112607        -0.068635         1.166112
 C         0.375593         0.477367         0.954393
 C         0.958578         0.760180        -0.324834
 O         1.448065        -0.423683         0.071282
 C         0.888335         0.599117         2.321958
 H         1.126454        -0.768300         4.934829
 H         0.835550        -1.852364         1.710609
 H         0.202978        -2.675446         3.253792
 H        -1.963266        -1.219165         2.967309
 H        -1.237661        -0.687094         0.223722
 H        -2.029910         0.599552         1.365297
 H         0.295444         0.702571        -1.158400
 H         1.670889         1.572499        -0.610095
 H         2.009332         0.691049         2.448288
 H         0.454535         1.614216         2.666559
