19
Iteration:  3447charge 0 multiplicity 1
 O         0.213880         0.050043         4.507365
 C         0.313425        -0.421786         3.204452
 C         0.225890        -1.877531         2.910198
 C        -0.924313        -0.956908         2.520710
 C        -0.943107        -0.199274         1.193812
 C         0.470345         0.206292         0.854210
 C         0.836384         1.052345        -0.272278
 O         1.257508        -0.287391        -0.185625
 C         1.114464         0.414946         2.234704
 H        -0.036846        -0.583355         5.175911
 H         0.957721        -2.212330         2.148897
 H        -0.113216        -2.580348         3.740481
 H        -1.772580        -0.991213         3.209263
 H        -1.351830        -0.763086         0.338272
 H        -1.651897         0.712020         1.327309
 H         0.066326         1.467091        -0.869610
 H         1.690971         1.750455        -0.084942
 H         2.251454         0.335877         2.228075
 H         0.810300         1.469238         2.601998
