19
Iteration:  4086charge 0 multiplicity 1
 O         0.451806        -0.055378         4.540502
 C         0.303752        -0.377421         3.184987
 C         0.502482        -1.770066         2.699335
 C        -0.823858        -1.017800         2.440044
 C        -1.039972        -0.300006         1.103783
 C         0.330262         0.411867         0.913400
 C         0.885933         0.987696        -0.334639
 O         1.130774        -0.432343         0.156918
 C         0.764177         0.704007         2.294234
 H         0.218283        -0.790894         5.073089
 H         1.366468        -1.794151         1.879379
 H         0.470605        -2.642096         3.426847
 H        -1.757104        -1.359576         2.916840
 H        -1.227356        -0.982182         0.303719
 H        -2.052558         0.212799         1.118644
 H         0.154308         0.943838        -1.196353
 H         1.743606         1.606966        -0.540893
 H         1.837096         0.757376         2.443211
 H         0.361528         1.619495         2.534917
