19
Iteration:  3387
 O         0.195898        -0.227537         4.531195
 C         0.371602        -0.431618         3.145713
 C         0.288704        -1.847345         2.718616
 C        -0.924714        -0.763682         2.544883
 C        -1.035913        -0.177502         1.113387
 C         0.384412         0.390731         0.901209
 C         0.933165         0.920448        -0.326319
 O         1.172096        -0.489793        -0.007143
 C         1.095965         0.737587         2.380721
 H         0.938557         0.246591         4.876539
 H         0.827562        -2.194735         1.830628
 H         0.087761        -2.606499         3.381408
 H        -1.675713        -0.877066         3.409619
 H        -1.060069        -1.070112         0.449013
 H        -1.845782         0.430421         0.883043
 H         0.173544         1.211643        -1.201049
 H         1.845796         1.498259        -0.226592
 H         2.172037         0.638907         2.371918
 H         0.788024         1.670716         2.826870
