19
Iteration:  4903
 O         0.228310         0.097648         4.677903
 C         0.312957        -0.403488         3.277268
 C         0.621310        -1.871975         2.819590
 C        -0.687266        -1.084317         2.522104
 C        -0.895896        -0.551422         1.028731
 C         0.327175         0.293529         0.895067
 C         0.520031         1.058322        -0.411140
 O         1.260195        -0.122991        -0.124638
 C         0.903627         0.612858         2.336295
 H        -0.156386        -0.541863         5.303383
 H         1.361454        -2.163220         2.120105
 H         0.337008        -2.705569         3.482088
 H        -1.585665        -1.345922         3.059339
 H        -1.067832        -1.419082         0.190906
 H        -1.843680         0.034710         1.060977
 H        -0.303817         1.159450        -1.224452
 H         1.126101         2.009199        -0.518672
 H         1.938117         0.558479         2.079246
 H         0.667951         1.614065         2.707435
