19
Iteration:  4514
 O         0.452485        -0.141156         4.592065
 C         0.240766        -0.344004         3.129924
 C         0.385896        -1.820041         2.801115
 C        -0.890979        -1.053374         2.491434
 C        -0.947148        -0.360376         1.106286
 C         0.420612         0.295589         0.900766
 C         0.660568         1.032782        -0.262712
 O         1.266124        -0.326541        -0.041874
 C         0.929301         0.751337         2.287387
 H        -0.315397         0.348222         4.972972
 H         1.011681        -2.298571         2.013699
 H         0.389177        -2.387936         3.799502
 H        -1.853856        -1.178175         2.985361
 H        -1.007450        -1.092516         0.324751
 H        -1.847834         0.321838         0.876449
 H        -0.000903         0.911300        -1.063453
 H         1.322820         1.877725        -0.306521
 H         2.045702         0.550845         2.377270
 H         0.686428         1.825920         2.492571
