19
Iteration:  3731
 O         0.423871        -0.041905         4.503578
 C         0.297636        -0.420134         3.163824
 C         0.454191        -1.837555         2.671311
 C        -0.876654        -1.030437         2.455404
 C        -1.099209        -0.165546         1.079756
 C         0.294635         0.441710         0.934179
 C         0.921979         0.880585        -0.375287
 O         1.174987        -0.389241         0.256020
 C         0.888864         0.709270         2.309105
 H         0.191002        -0.809735         5.023056
 H         1.114705        -2.056478         1.889098
 H         0.257981        -2.556810         3.455938
 H        -1.638200        -1.698922         2.845662
 H        -1.396290        -0.733482         0.213389
 H        -1.926907         0.495568         1.258241
 H         0.319539         0.925833        -1.401512
 H         1.871089         1.476794        -0.490013
 H         1.957261         0.696380         2.175054
 H         0.598844         1.653933         2.752462
