19
Iteration:  3254
 O         0.242232        -0.141667         4.676243
 C         0.257548        -0.426568         3.277283
 C         0.318673        -1.739983         2.788751
 C        -0.927918        -0.916483         2.434084
 C        -0.961413        -0.151991         1.107966
 C         0.510668         0.233665         0.916642
 C         0.883380         1.061234        -0.329150
 O         1.174838        -0.416530        -0.124248
 C         1.040030         0.489795         2.250200
 H         0.279598         0.804383         4.779768
 H         1.028529        -2.009694         1.978465
 H         0.157964        -2.625590         3.451999
 H        -1.746066        -1.275502         3.000074
 H        -1.348760        -0.739860         0.293162
 H        -1.665045         0.608715         1.302023
 H        -0.046681         1.406859        -0.846486
 H         1.791389         1.668448        -0.206538
 H         2.134613         0.401129         2.212249
 H         0.794868         1.507232         2.579614
