19
Iteration:  1536charge 0 multiplicity 1
 O         0.136248        -0.025643         4.451468
 C         0.368046        -0.447728         3.149440
 C         0.327078        -1.904265         2.633874
 C        -0.870302        -0.978163         2.444259
 C        -0.945725        -0.016973         1.268277
 C         0.438181         0.423047         0.935339
 C         0.855514         0.930885        -0.303095
 O         1.166557        -0.466096         0.069078
 C         1.061380         0.580951         2.337475
 H         0.121350        -0.718853         5.086007
 H         0.988798        -2.331346         1.880088
 H         0.296823        -2.531099         3.476388
 H        -1.813000        -0.999432         3.067222
 H        -1.207113        -0.607131         0.426936
 H        -1.606479         0.815370         1.510719
 H         0.206471         0.993404        -1.143859
 H         1.756549         1.527794        -0.496785
 H         2.247544         0.462663         2.391212
 H         0.854266         1.626013         2.609765
