19
Iteration:   529
 O         0.238849        -0.209044         4.570589
 C         0.329974        -0.422915         3.151240
 C         0.195512        -1.825478         2.725241
 C        -0.908032        -0.809999         2.520691
 C        -0.997867        -0.199847         1.183869
 C         0.416569         0.333827         0.913040
 C         0.863569         0.876506        -0.360050
 O         1.289835        -0.393834        -0.007833
 C         1.019990         0.665089         2.298066
 H         0.960905         0.437858         4.763518
 H         0.923864        -2.185652         1.997320
 H         0.097139        -2.331168         3.636038
 H        -1.714639        -1.183404         3.143467
 H        -1.355758        -0.691805         0.205067
 H        -1.674580         0.640698         1.291461
 H         0.316691         1.018582        -1.331575
 H         1.611225         1.624260        -0.120432
 H         2.145031         0.644816         2.139841
 H         0.696997         1.676678         2.811817
