19
Iteration:  3391
 O         0.188096        -0.185351         4.530687
 C         0.360643        -0.433052         3.155599
 C         0.305687        -1.850061         2.691591
 C        -0.930347        -0.755355         2.556456
 C        -1.019519        -0.215883         1.119731
 C         0.403559         0.398456         0.934811
 C         0.929822         0.951039        -0.367117
 O         1.148610        -0.467442        -0.024646
 C         1.087965         0.679956         2.412692
 H         0.933633         0.275287         5.017703
 H         0.895919        -2.243282         1.855806
 H         0.076632        -2.708153         3.404231
 H        -1.658345        -0.884760         3.281141
 H        -1.060688        -1.021897         0.337140
 H        -1.936173         0.474855         0.997562
 H         0.276140         1.016126        -1.207640
 H         1.926146         1.466790        -0.304682
 H         2.206089         0.487312         2.342205
 H         0.795995         1.699129         2.859344
