19
Iteration:   673
 O         0.238713         0.059736         4.603922
 C         0.326593        -0.470387         3.197412
 C         0.184003        -1.822982         2.843443
 C        -0.931206        -0.881207         2.462975
 C        -0.947531        -0.201128         1.122816
 C         0.491090         0.298040         0.931193
 C         0.918521         1.014132        -0.219371
 O         1.146310        -0.351224        -0.194802
 C         1.161057         0.419550         2.294023
 H        -0.372358        -0.548814         4.993030
 H         0.786725        -2.256222         2.004598
 H        -0.111040        -2.630832         3.596645
 H        -1.837876        -0.979582         3.119353
 H        -0.883608        -0.959943         0.229476
 H        -1.789171         0.462707         0.968549
 H         0.107660         1.363517        -0.967633
 H         1.738251         1.812618        -0.047964
 H         2.130651        -0.034965         2.089383
 H         1.147991         1.591627         2.601904
