19
Iteration:  3400
 O         0.162672        -0.096011         4.575153
 C         0.359617        -0.407149         3.234683
 C         0.288019        -1.848101         2.667567
 C        -0.896001        -0.834650         2.506474
 C        -0.986463        -0.244605         1.154968
 C         0.454287         0.412274         0.970191
 C         0.937098         0.948114        -0.393778
 O         1.113245        -0.395451        -0.026965
 C         1.057674         0.523847         2.369716
 H         1.044832         0.160209         4.995836
 H         0.879801        -2.090107         1.777671
 H         0.149897        -2.554706         3.479485
 H        -1.851396        -0.983865         2.981679
 H        -1.214987        -0.897090         0.265016
 H        -1.737094         0.533472         1.195006
 H         0.314777         0.983220        -1.351030
 H         1.850799         1.597485        -0.564912
 H         2.162201         0.363470         2.313735
 H         0.910804         1.574017         2.749108
