19
Iteration:  1860charge 0 multiplicity 1
 O         0.107300        -0.083980         4.539783
 C         0.385077        -0.433251         3.242815
 C         0.393564        -1.850336         2.527136
 C        -0.757335        -0.913264         2.422962
 C        -1.056296        -0.002951         1.224793
 C         0.357316         0.373752         0.914656
 C         0.983142         0.906976        -0.263151
 O         1.141963        -0.496694         0.095410
 C         0.988002         0.535017         2.276231
 H         0.845314         0.086912         5.125778
 H         1.167362        -1.945972         1.806676
 H         0.426526        -2.674678         3.233061
 H        -1.641892        -1.245274         2.864174
 H        -1.769774        -0.419256         0.425191
 H        -1.796781         0.909839         1.521437
 H         0.345897         0.940322        -1.050030
 H         1.960786         1.347310        -0.258642
 H         1.964253         0.764026         2.259847
 H         0.486828         1.549965         2.491805
