19
Iteration:  2841
 O         0.284256        -0.018407         4.581444
 C         0.308925        -0.441192         3.181350
 C         0.055843        -1.894054         2.945767
 C        -0.987999        -0.876642         2.477209
 C        -0.842766        -0.432314         1.057739
 C         0.506829         0.202923         0.938175
 C         0.745126         1.156173        -0.197685
 O         1.280117        -0.218044        -0.239465
 C         1.079413         0.490929         2.288797
 H         1.195834         0.077142         4.841899
 H         0.670274        -2.487203         2.194598
 H        -0.027027        -2.368466         3.938472
 H        -1.865187        -0.837339         3.065042
 H        -1.022467        -1.252658         0.326271
 H        -1.575468         0.300510         0.819654
 H         0.066010         1.430588        -1.077040
 H         1.635496         1.882322        -0.011733
 H         2.154628         0.443839         2.422937
 H         0.855830         1.547500         2.431602
