19
Iteration:  1157
 O         0.166391        -0.155398         4.723511
 C         0.219573        -0.443239         3.343773
 C         0.383659        -1.750549         2.674588
 C        -0.908754        -0.881081         2.438994
 C        -0.945061        -0.063294         1.102280
 C         0.439316         0.437201         0.862693
 C         0.997537         0.914883        -0.424828
 O         1.099309        -0.539037        -0.124977
 C         1.040910         0.609584         2.400158
 H         0.987647        -0.512821         5.042472
 H         1.071619        -1.886491         1.883258
 H         0.219399        -2.604862         3.350204
 H        -1.826831        -1.201890         2.838116
 H        -1.536925        -0.639844         0.374394
 H        -1.601965         0.768560         1.282935
 H         0.175877         1.120796        -1.076682
 H         1.888634         1.514027        -0.504114
 H         2.084447         0.403291         2.428278
 H         1.055644         1.684859         2.760128
