19
Iteration:  4937charge 0 multiplicity 1
 O         0.203464        -0.075104         4.514436
 C         0.313491        -0.320259         3.167322
 C         0.595965        -1.806356         2.880956
 C        -0.749349        -1.187341         2.523040
 C        -0.879150        -0.636620         1.156940
 C         0.370398         0.295698         0.929503
 C         0.526095         1.087903        -0.265786
 O         1.236505        -0.114840        -0.153173
 C         0.950378         0.703252         2.291312
 H        -0.086157         0.837987         4.678241
 H         1.329652        -2.239013         2.198205
 H         0.381695        -2.323280         3.787860
 H        -1.528714        -1.494189         3.162567
 H        -1.106966        -1.288585         0.190863
 H        -1.759037         0.060333         1.276298
 H        -0.280303         1.004169        -1.083130
 H         1.217496         1.895520        -0.177496
 H         2.036404         0.611463         2.225794
 H         0.731100         1.762323         2.482513
