19
Iteration:  4463charge 0 multiplicity 1
 O         0.403688        -0.051561         4.514307
 C         0.330321        -0.388002         3.159979
 C         0.402300        -1.820216         2.716421
 C        -0.895144        -1.030910         2.552849
 C        -1.034885        -0.351081         1.141625
 C         0.276717         0.379982         0.901580
 C         0.838106         0.928908        -0.311934
 O         1.316443        -0.325920         0.103694
 C         0.834701         0.733457         2.241063
 H         0.728424        -0.841514         4.957428
 H         0.874206        -2.114904         1.754127
 H         0.566647        -2.655962         3.376956
 H        -1.841638        -1.108331         3.114005
 H        -1.496978        -0.967074         0.328853
 H        -1.767933         0.426677         1.268723
 H         0.178502         0.953700        -1.278744
 H         1.545410         1.751599        -0.127982
 H         1.895034         0.945403         2.099947
 H         0.283391         1.650178         2.529897
