19
Iteration:   629
 O         0.254518         0.020458         4.607309
 C         0.322760        -0.416727         3.287412
 C         0.141375        -1.920175         2.830088
 C        -0.956700        -0.895744         2.536714
 C        -0.971109        -0.209665         1.122405
 C         0.491899         0.331356         0.917535
 C         0.821859         1.040159        -0.240858
 O         1.312732        -0.315168        -0.267921
 C         1.156536         0.374073         2.253968
 H        -0.641389         0.070468         4.894317
 H         0.881237        -2.408278         2.191344
 H        -0.056244        -2.674734         3.677376
 H        -1.927822        -0.870331         3.088859
 H        -1.377181        -0.883720         0.244304
 H        -1.452629         0.768000         1.138056
 H        -0.105697         1.271911        -0.916731
 H         1.672829         1.729390        -0.401698
 H         2.193212        -0.002101         2.182812
 H         1.172800         1.499146         2.704603
