19
Iteration:  4954
 O         0.134378        -0.010351         4.585413
 C         0.409368        -0.406313         3.219755
 C         0.618132        -1.870734         2.912305
 C        -0.731865        -1.140106         2.547970
 C        -0.930827        -0.569075         1.105705
 C         0.327828         0.245845         0.819906
 C         0.540429         1.155457        -0.274628
 O         1.278863        -0.153548        -0.139681
 C         0.881339         0.652091         2.249530
 H         0.811702         0.662007         4.783639
 H         1.159650        -1.951649         1.979894
 H         0.860070        -2.579173         3.754721
 H        -1.728776        -1.252186         3.071819
 H        -0.952065        -1.389404         0.469989
 H        -1.882323        -0.078755         0.949456
 H        -0.206296         1.252367        -1.016083
 H         1.108804         2.134889        -0.101791
 H         2.017371         0.870514         2.158135
 H         0.331268         1.568242         2.575417
