19
Iteration:  3510charge 0 multiplicity 1
 O         0.425500        -0.058797         4.619547
 C         0.218883        -0.341701         3.211410
 C        -0.006845        -1.842256         2.981257
 C        -1.004888        -0.895644         2.543770
 C        -0.925079        -0.500385         1.024326
 C         0.507437         0.151274         0.870714
 C         0.672035         1.147185        -0.245306
 O         1.432669        -0.133056        -0.245848
 C         1.144296         0.413054         2.251405
 H         0.155988         0.855010         4.669528
 H         0.473537        -2.601740         2.334183
 H        -0.075413        -2.290287         4.024365
 H        -1.940489        -0.747853         3.015450
 H        -1.079480        -1.287124         0.250513
 H        -1.639593         0.252287         0.829114
 H        -0.102875         1.421221        -0.975862
 H         1.399732         1.951630         0.201314
 H         2.100255        -0.135823         2.289918
 H         1.225346         1.496305         2.450473
