19
Iteration:  3116charge 0 multiplicity 1
 O         0.316922         0.055316         4.435854
 C         0.311265        -0.462885         3.163871
 C         0.079106        -1.971796         3.024098
 C        -0.890896        -0.905169         2.513921
 C        -0.965176        -0.361080         1.105084
 C         0.401380         0.291665         0.876092
 C         0.747407         1.205820        -0.203974
 O         1.367156        -0.212848        -0.122224
 C         1.169183         0.388090         2.240747
 H        -0.162885        -0.562813         5.043456
 H         0.553405        -2.523831         2.288630
 H        -0.093857        -2.474814         3.925484
 H        -1.838895        -0.734614         3.020303
 H        -1.239593        -1.036893         0.233594
 H        -1.909650         0.325094         1.155037
 H         0.200671         1.173733        -1.145747
 H         1.407888         1.946208         0.066140
 H         2.198116         0.157361         1.926410
 H         1.228727         1.466449         2.548939
