19
Iteration:  4391charge 0 multiplicity 1
 O         0.186107        -0.161253         4.628404
 C         0.299809        -0.291768         3.137271
 C         0.494925        -1.844378         2.710604
 C        -0.789629        -1.000178         2.471765
 C        -0.992020        -0.282285         1.228323
 C         0.372773         0.329948         0.923493
 C         0.753104         0.931917        -0.309925
 O         1.198729        -0.376506        -0.048041
 C         0.997339         0.707810         2.285784
 H         0.589179         0.715267         4.812047
 H         1.147986        -2.063792         1.820313
 H         0.603966        -2.672779         3.333335
 H        -1.739420        -1.346331         2.932031
 H        -1.448092        -0.715715         0.326374
 H        -1.704302         0.562380         1.483902
 H         0.044239         0.806365        -1.089284
 H         1.435098         1.732276        -0.389026
 H         2.108856         0.618743         2.287050
 H         0.671833         1.768654         2.558976
