19
Iteration:  1486charge 0 multiplicity 1
 O         0.387939        -0.201928         4.654950
 C         0.289862        -0.344615         3.232488
 C         0.320856        -1.697494         2.722711
 C        -0.962415        -0.857799         2.472424
 C        -1.033686        -0.187701         1.043561
 C         0.334394         0.407646         0.855760
 C         1.068984         0.873452        -0.332010
 O         1.143951        -0.438398         0.049858
 C         0.966158         0.622329         2.276308
 H        -0.173098        -0.927283         4.999167
 H         0.990203        -1.970953         1.861655
 H         0.209819        -2.614776         3.372962
 H        -1.830944        -1.252241         2.911157
 H        -1.434224        -0.905290         0.212932
 H        -1.753859         0.688727         1.210745
 H         0.416309         1.173811        -1.166591
 H         1.995995         1.530133        -0.169055
 H         2.027009         0.552995         2.213418
 H         0.740904         1.603206         2.752064
