19
Iteration:   823charge 0 multiplicity 1
 O         0.207158         0.060958         4.622203
 C         0.283078        -0.455230         3.219343
 C         0.383297        -1.803445         2.597748
 C        -0.896607        -1.003662         2.395301
 C        -1.080840        -0.102015         1.136142
 C         0.452113         0.432723         0.993385
 C         0.975179         0.878830        -0.303470
 O         1.093395        -0.467043        -0.019592
 C         1.086531         0.532329         2.319040
 H         0.686504        -0.522816         5.194146
 H         1.199032        -1.968136         1.767570
 H         0.275723        -2.537359         3.391381
 H        -1.830261        -1.424434         2.893972
 H        -1.364593        -0.521687         0.133023
 H        -1.846673         0.715296         1.431564
 H         0.185529         1.144414        -1.061847
 H         1.838325         1.553629        -0.341707
 H         2.202285         0.253994         2.536270
 H         0.909517         1.474489         2.848563
