19
Iteration:  2823
 O         0.430394         0.033826         4.569024
 C         0.275266        -0.422137         3.195806
 C        -0.002773        -1.899104         3.000649
 C        -1.024905        -0.892565         2.422551
 C        -0.889465        -0.475790         0.961390
 C         0.495022         0.199109         0.926265
 C         0.726934         1.196655        -0.159077
 O         1.368194        -0.183944        -0.180078
 C         1.090426         0.411271         2.289633
 H         1.249282         0.510842         4.562221
 H         0.568509        -2.465886         2.296572
 H        -0.559169        -2.452737         3.772233
 H        -2.104163        -1.111822         2.898756
 H        -0.861123        -1.329569         0.310304
 H        -1.799280         0.160227         0.760598
 H        -0.237898         1.381259        -0.703343
 H         1.276341         2.130841        -0.084296
 H         2.184258         0.162367         2.303321
 H         0.975420         1.433527         2.734875
