19
Iteration:  2930charge 0 multiplicity 1
 O         0.216748        -0.111246         4.639025
 C         0.372783        -0.417028         3.171652
 C         0.316574        -1.888771         2.641907
 C        -0.827421        -0.941857         2.446120
 C        -1.037553        -0.147271         1.163969
 C         0.397450         0.440139         0.938611
 C         0.938544         0.903929        -0.345005
 O         1.211371        -0.475183         0.010598
 C         0.916633         0.766578         2.331693
 H         0.990679        -0.376213         5.139539
 H         0.871141        -2.067377         1.714332
 H         0.105543        -2.826257         3.211121
 H        -1.824478        -1.217282         2.964393
 H        -1.443933        -0.626733         0.268321
 H        -1.743131         0.628922         1.449039
 H         0.271777         0.869253        -1.300696
 H         1.958191         1.357248        -0.309877
 H         2.011424         0.702789         2.373586
 H         0.531588         1.771245         2.638721
