19
Iteration:  4354charge 0 multiplicity 1
 O         0.298157        -0.022829         4.582730
 C         0.316337        -0.429768         3.263369
 C         0.376951        -1.977969         2.801512
 C        -0.820327        -0.985034         2.508195
 C        -1.008549        -0.411333         1.099701
 C         0.350157         0.338924         0.939012
 C         0.798764         1.054123        -0.319448
 O         1.222107        -0.258411        -0.098917
 C         0.947134         0.646841         2.242179
 H         0.915052         0.646925         4.977268
 H         1.064984        -2.154082         2.022394
 H         0.119875        -2.584306         3.717693
 H        -1.745805        -1.100766         3.064092
 H        -1.239688        -1.247837         0.319515
 H        -1.858317         0.223097         1.276895
 H         0.134996         1.169621        -1.278707
 H         1.522537         1.937330        -0.182220
 H         2.005349         0.549102         2.132425
 H         0.735918         1.651101         2.519790
