19
Iteration:  1834charge 0 multiplicity 1
 O         0.222637        -0.112404         4.501458
 C         0.275111        -0.404583         3.174590
 C         0.388920        -1.815691         2.588078
 C        -0.914833        -1.035371         2.407578
 C        -0.986321        -0.076571         1.201362
 C         0.393764         0.443592         0.951382
 C         1.004988         0.848542        -0.267195
 O         1.121687        -0.480349         0.068234
 C         0.954912         0.693091         2.390399
 H         1.059348        -0.113946         4.952390
 H         1.121168        -2.025531         1.780637
 H         0.399784        -2.521465         3.416025
 H        -1.914051        -1.285957         2.905127
 H        -1.629179        -0.447893         0.410196
 H        -1.714697         0.810367         1.321096
 H         0.370571         0.994937        -1.245201
 H         1.987073         1.347753        -0.259897
 H         2.130565         0.621430         2.242894
 H         0.777296         1.683550         2.735192
