19
Iteration:  1761charge 0 multiplicity 1
 O         0.404988        -0.044604         4.498826
 C         0.284443        -0.449070         3.170243
 C         0.012199        -1.933221         2.850374
 C        -1.053855        -0.821697         2.524758
 C        -0.908271        -0.308452         1.081837
 C         0.529538         0.269119         0.919504
 C         0.782570         1.018591        -0.308980
 O         1.406103        -0.231314        -0.039187
 C         1.014929         0.560392         2.319506
 H         0.621291        -0.840767         5.052480
 H         0.643250        -2.345573         2.079097
 H        -0.025399        -2.445774         3.786489
 H        -2.105374        -1.085749         2.854161
 H        -1.225391        -0.934950         0.206904
 H        -1.616913         0.514008         1.055536
 H         0.076675         1.071603        -1.146736
 H         1.383919         1.871111        -0.285332
 H         2.052485         0.390887         2.377667
 H         0.795844         1.620744         2.701820
