19
Iteration:  3199
 O         0.207564         0.059008         4.539193
 C         0.336745        -0.492596         3.197354
 C         0.152845        -1.973690         2.924744
 C        -0.904189        -0.864067         2.578606
 C        -0.961667        -0.336780         1.080211
 C         0.415288         0.299192         0.883008
 C         0.822560         1.120070        -0.292689
 O         1.298970        -0.207397        -0.174790
 C         1.110747         0.420266         2.262373
 H         0.741806        -0.531641         5.118436
 H         0.772209        -2.514794         2.116830
 H        -0.137528        -2.568191         3.805385
 H        -1.650546        -0.742210         3.277511
 H        -1.105296        -1.165653         0.419181
 H        -1.704212         0.397522         1.075036
 H         0.256561         1.340771        -1.222137
 H         1.446530         2.056827        -0.061963
 H         2.098573         0.062937         2.012492
 H         1.013403         1.401144         2.743072
