19
Iteration:  1604
 O         0.350576        -0.091011         4.608930
 C         0.333438        -0.397731         3.197978
 C        -0.017569        -1.789924         2.762940
 C        -1.017039        -0.814133         2.527826
 C        -0.935926        -0.391117         1.086750
 C         0.502378         0.132555         0.894485
 C         0.852202         1.052738        -0.155060
 O         1.351438        -0.260604        -0.274856
 C         0.998808         0.514587         2.366056
 H         1.258028         0.134493         4.927211
 H         0.533791        -2.320594         2.010265
 H        -0.113145        -2.397190         3.720172
 H        -1.859439        -0.593935         3.086887
 H        -1.100356        -1.293598         0.444126
 H        -1.592910         0.342614         0.730399
 H         0.148086         1.468365        -0.889204
 H         1.532792         1.948088         0.111198
 H         2.217158         0.579022         2.442713
 H         0.655533         1.491691         2.617067
