19
Iteration:  4865
 O         0.226252        -0.093872         4.540924
 C         0.316228        -0.334994         3.150716
 C         0.604429        -1.829197         2.882470
 C        -0.768026        -1.105747         2.523258
 C        -0.921987        -0.558285         1.105319
 C         0.319418         0.234909         0.851728
 C         0.599053         1.071651        -0.254537
 O         1.287740        -0.177076        -0.047739
 C         0.809133         0.746746         2.254358
 H         1.077200         0.393093         4.569238
 H         1.047965        -2.289437         1.937430
 H         0.663866        -2.373055         3.810115
 H        -1.669256        -1.264969         3.170810
 H        -1.151467        -1.247300         0.414769
 H        -1.659533         0.243932         0.979067
 H        -0.237097         1.207037        -0.910889
 H         1.301352         1.864346        -0.082227
 H         1.939077         0.762337         2.217473
 H         0.468798         1.758349         2.567329
