19
Iteration:  4009charge 0 multiplicity 1
 O         0.342245        -0.164157         4.736105
 C         0.311924        -0.384626         3.231794
 C         0.352463        -1.842379         2.780233
 C        -0.845119        -1.016774         2.461137
 C        -0.945043        -0.354239         1.131068
 C         0.371312         0.446117         0.897522
 C         0.710515         0.987052        -0.378997
 O         1.252631        -0.345757        -0.070449
 C         0.957200         0.703229         2.261514
 H         0.402010         0.841867         4.794149
 H         1.042933        -2.181476         1.858750
 H         0.130417        -2.691405         3.441831
 H        -1.823638        -1.186617         2.751014
 H        -1.067003        -1.166139         0.455753
 H        -1.781718         0.312115         0.981673
 H        -0.072248         1.072284        -1.161369
 H         1.601894         1.678840        -0.376071
 H         2.022346         0.822021         2.157722
 H         0.578185         1.612748         2.569594
