19
Iteration:  3375charge 0 multiplicity 1
 O         0.259726        -0.318565         4.573107
 C         0.409719        -0.338600         3.155627
 C         0.184946        -1.783612         2.709881
 C        -0.890738        -0.815192         2.504040
 C        -1.021330        -0.164153         1.129021
 C         0.387687         0.357138         0.952392
 C         0.944300         0.887640        -0.273611
 O         1.228213        -0.491211         0.048080
 C         0.997235         0.735632         2.217057
 H         1.084639         0.096005         4.927893
 H         0.618013        -2.142670         1.784079
 H         0.199439        -2.394198         3.573666
 H        -1.903626        -0.795316         3.066938
 H        -1.254658        -0.923233         0.356437
 H        -1.733684         0.616689         1.005426
 H         0.225373         1.167436        -1.174208
 H         1.736311         1.604292        -0.122978
 H         2.048238         0.916736         2.153607
 H         0.536054         1.671206         2.487284
