19
Iteration:  2155
 O         0.255716        -0.152921         4.589861
 C         0.308061        -0.442970         3.196331
 C         0.330243        -1.893345         2.667264
 C        -0.911564        -0.849989         2.393181
 C        -1.036970        -0.038017         1.083725
 C         0.424235         0.353842         0.941669
 C         0.819831         0.827651        -0.390314
 O         1.275004        -0.390696         0.168263
 C         1.014140         0.615636         2.343242
 H         1.206885        -0.107412         4.868089
 H         1.057899        -2.157701         1.853866
 H        -0.017996        -2.678140         3.425787
 H        -1.888198        -1.108258         2.774459
 H        -1.482494        -0.582296         0.235075
 H        -1.516572         0.858369         1.372611
 H        -0.009381         0.945529        -1.117741
 H         1.539900         1.738923        -0.563910
 H         2.080197         0.687198         2.229086
 H         0.667533         1.642759         2.705509
