19
Iteration:  4130
 O         0.404801        -0.043832         4.580742
 C         0.327829        -0.423371         3.206322
 C         0.410271        -1.799143         2.721449
 C        -0.844617        -0.945784         2.601150
 C        -1.051292        -0.369375         1.164002
 C         0.367565         0.280885         0.866228
 C         0.751396         0.980532        -0.347619
 O         1.341179        -0.263754        -0.001953
 C         0.856167         0.612747         2.243798
 H        -0.360840        -0.388766         5.015606
 H         1.001607        -1.994124         1.747062
 H         0.301342        -2.730625         3.429543
 H        -1.693487        -1.305017         3.268442
 H        -1.324985        -1.032387         0.373772
 H        -1.804323         0.506391         0.981995
 H        -0.033556         1.073649        -1.175640
 H         1.462708         1.791723        -0.329260
 H         1.898988         0.906122         2.138772
 H         0.330345         1.481386         2.554896
