19
Iteration:   926
 O         0.320686        -0.069146         4.534232
 C         0.241613        -0.382716         3.169430
 C         0.036851        -1.880788         2.856327
 C        -0.986275        -0.800381         2.522257
 C        -0.943281        -0.388356         1.094073
 C         0.407107         0.289597         0.939592
 C         0.826337         1.082689        -0.235005
 O         1.340559        -0.249723        -0.081081
 C         1.148463         0.429240         2.265703
 H         1.295067        -0.012744         4.595828
 H         0.448886        -2.444666         2.072188
 H        -0.060095        -2.329659         3.838957
 H        -1.979083        -0.634965         3.025510
 H        -1.035508        -1.287681         0.362123
 H        -1.653999         0.317398         0.698291
 H         0.090773         1.284521        -1.084341
 H         1.667843         1.887517        -0.081742
 H         2.144873         0.077081         2.139396
 H         1.234869         1.478190         2.561895
