19
Iteration:  1315charge 0 multiplicity 1
 O         0.190562         0.093833         4.583113
 C         0.292201        -0.495170         3.194911
 C         0.191804        -1.982343         2.987531
 C        -0.919341        -0.955715         2.419877
 C        -0.992248        -0.186626         1.050097
 C         0.455841         0.309964         0.918442
 C         0.839106         1.124332        -0.244217
 O         1.247298        -0.256365        -0.136357
 C         1.192122         0.350010         2.244007
 H         1.125154         0.036576         4.834459
 H         0.738660        -2.670298         2.259853
 H        -0.284458        -2.578886         3.788526
 H        -1.840750        -1.062297         2.935155
 H        -1.253339        -0.704762         0.180623
 H        -1.744271         0.616838         1.141419
 H         0.111317         1.250943        -1.129104
 H         1.536233         1.885644        -0.006247
 H         2.151466        -0.052410         2.000616
 H         1.243011         1.334528         2.721551
