19
Iteration:  2441charge 0 multiplicity 1
 O         0.297102        -0.116708         4.557378
 C         0.313887        -0.404953         3.185548
 C         0.141334        -1.793546         2.822067
 C        -0.986782        -0.836365         2.506970
 C        -1.015029        -0.300199         1.129383
 C         0.348487         0.280666         0.909089
 C         0.961554         1.055669        -0.157071
 O         1.307802        -0.343870        -0.116742
 C         1.008193         0.544492         2.201305
 H         1.064093        -0.667133         4.848467
 H         0.790278        -2.203001         1.952228
 H         0.076937        -2.462625         3.728134
 H        -1.911800        -0.840675         3.155672
 H        -1.083610        -1.191092         0.513642
 H        -1.841365         0.278602         0.882010
 H         0.512556         1.534987        -1.117391
 H         1.894339         1.657022        -0.010528
 H         2.113947         0.522010         2.199612
 H         0.946025         1.615041         2.354681
