19
Iteration:   702charge 0 multiplicity 1
 O         0.382989         0.029739         4.521894
 C         0.333164        -0.485512         3.142237
 C         0.073991        -1.937548         2.900373
 C        -1.007244        -0.913501         2.494443
 C        -1.074225        -0.229641         1.152873
 C         0.471518         0.281711         0.839065
 C         0.989718         1.089637        -0.320075
 O         1.342241        -0.316540        -0.063685
 C         0.973381         0.542880         2.273188
 H         0.387091        -0.753317         5.158966
 H         0.624414        -2.475497         2.169549
 H        -0.185559        -2.668082         3.720394
 H        -1.807096        -0.841114         3.279499
 H        -1.438388        -0.789753         0.326118
 H        -1.683186         0.694179         1.294060
 H         0.236602         1.113825        -1.086539
 H         1.753567         1.752483        -0.123758
 H         2.085265         0.290277         2.290198
 H         0.813870         1.517969         2.571660
