19
Iteration:  1517
 O         0.241729        -0.027280         4.568744
 C         0.269702        -0.405221         3.201628
 C         0.409846        -1.800472         2.603890
 C        -0.915257        -0.977445         2.413930
 C        -1.000125        -0.032606         1.171474
 C         0.490294         0.319137         0.958166
 C         0.927016         0.845845        -0.317035
 O         1.132198        -0.503801        -0.019504
 C         1.009179         0.649040         2.406029
 H        -0.006393        -0.808186         5.077813
 H         1.056418        -1.825813         1.697563
 H         0.139426        -2.766605         3.062015
 H        -1.751272        -1.338414         2.954439
 H        -1.581960        -0.369010         0.252516
 H        -1.351106         0.861471         1.602485
 H         0.099306         1.165198        -0.986652
 H         1.867993         1.573800        -0.342999
 H         2.151118         0.712198         2.550607
 H         0.611289         1.531833         2.811953
