19
Iteration:  3172charge 0 multiplicity 1
 O         0.398538        -0.012473         4.657029
 C         0.223262        -0.377361         3.252651
 C         0.083267        -1.798382         2.947543
 C        -1.009195        -0.889591         2.486144
 C        -0.857796        -0.447783         0.975418
 C         0.554085         0.163137         0.901122
 C         0.787083         1.128894        -0.164666
 O         1.242304        -0.195886        -0.275307
 C         1.098446         0.466641         2.268742
 H         0.220750        -0.900076         5.055789
 H         0.709227        -2.302091         2.269712
 H        -0.146679        -2.249760         3.928245
 H        -2.086672        -1.018991         2.937618
 H        -1.054044        -1.250022         0.194677
 H        -1.611988         0.433124         0.847933
 H        -0.013148         1.385312        -0.889773
 H         1.450174         2.003406        -0.265708
 H         2.165854         0.149673         2.107758
 H         1.076407         1.566285         2.425313
