19
Iteration:  3176
 O         0.361383        -0.036193         4.620246
 C         0.270939        -0.352969         3.280497
 C         0.068836        -1.792434         2.973622
 C        -0.999073        -0.900550         2.465977
 C        -0.912098        -0.433510         0.993317
 C         0.521201         0.184367         0.904504
 C         0.781067         1.149184        -0.163023
 O         1.270157        -0.207518        -0.268444
 C         1.141489         0.459096         2.235227
 H         0.287042        -0.808902         5.195606
 H         0.739682        -2.405093         2.231377
 H        -0.119804        -2.331574         3.926937
 H        -1.998099        -1.064396         2.851414
 H        -1.096026        -1.249021         0.358334
 H        -1.595178         0.352490         0.954790
 H         0.004790         1.371951        -0.921913
 H         1.564829         2.004069        -0.339267
 H         2.207035         0.200929         2.146965
 H         0.944184         1.501678         2.406190
