19
Iteration:  2817
 O         0.444243         0.050070         4.587985
 C         0.255397        -0.470352         3.189225
 C        -0.018750        -1.913544         3.014090
 C        -1.046583        -0.870775         2.431144
 C        -0.867965        -0.479975         0.965264
 C         0.480036         0.206556         0.930011
 C         0.712784         1.174903        -0.195199
 O         1.365656        -0.117917        -0.153604
 C         1.079223         0.375495         2.268714
 H         1.233736         0.628121         4.566523
 H         0.613529        -2.461201         2.285238
 H        -0.413814        -2.519471         3.819621
 H        -1.896405        -1.072454         2.945496
 H        -0.943224        -1.397494         0.294203
 H        -1.676003         0.189001         0.582530
 H        -0.105173         1.356717        -0.871170
 H         1.361053         2.051162         0.021952
 H         2.110427         0.013560         2.360461
 H         1.138484         1.458756         2.529947
