19
Iteration:   780charge 0 multiplicity 1
 O         0.150493        -0.239698         4.609263
 C         0.413823        -0.331518         3.176064
 C         0.287648        -1.842403         2.698984
 C        -0.870021        -0.852257         2.479086
 C        -1.039656        -0.059391         1.170819
 C         0.389354         0.345527         0.880182
 C         0.914789         0.875400        -0.346397
 O         1.241451        -0.455883         0.047727
 C         1.024045         0.670083         2.303901
 H         1.034111        -0.330843         4.992313
 H         0.723559        -2.297203         1.720971
 H         0.167287        -2.534623         3.559690
 H        -1.776288        -1.020939         3.174215
 H        -1.444852        -0.719575         0.347076
 H        -1.727641         0.810333         1.244191
 H         0.258241         0.945569        -1.261111
 H         1.782331         1.527105        -0.526543
 H         2.128824         0.860738         2.078925
 H         0.645407         1.638521         2.538651
