19
Iteration:  4260
 O         0.305856         0.122385         4.545457
 C         0.348490        -0.469453         3.275003
 C         0.357570        -1.933563         2.975220
 C        -0.870423        -1.050721         2.501960
 C        -0.877989        -0.453168         1.073528
 C         0.355934         0.388097         0.955374
 C         0.617841         1.170722        -0.320651
 O         1.253562        -0.189199        -0.258610
 C         1.080010         0.420666         2.300445
 H        -0.398296        -0.041280         5.156239
 H         1.133902        -2.306950         2.264391
 H         0.029234        -2.558398         3.895871
 H        -1.899539        -1.232527         2.893928
 H        -0.755307        -1.239916         0.344717
 H        -1.839580         0.079002         0.835985
 H        -0.250685         1.316633        -0.989013
 H         1.193798         2.043499        -0.152939
 H         2.130602         0.020268         2.207532
 H         1.081949         1.550944         2.541612
