19
Iteration:  2877charge 0 multiplicity 1
 O         0.095862        -0.015794         4.674626
 C         0.388094        -0.396573         3.197839
 C         0.276109        -1.826041         2.793662
 C        -0.871276        -0.964879         2.481069
 C        -1.033278        -0.263661         1.136896
 C         0.391574         0.356004         0.890920
 C         0.837644         0.976923        -0.338805
 O         1.259067        -0.286786        -0.152016
 C         1.165978         0.494856         2.263704
 H         0.452606        -0.692220         5.240903
 H         1.077684        -2.111382         2.145890
 H         0.204710        -2.492299         3.669922
 H        -1.819797        -1.086126         3.154776
 H        -1.188473        -0.896454         0.302865
 H        -1.793328         0.492474         1.283567
 H         0.156647         1.283692        -1.262716
 H         1.615375         1.779203        -0.070403
 H         2.124803         0.012700         2.097500
 H         1.132870         1.461003         2.692658
