19
Iteration:  4498charge 0 multiplicity 1
 O         0.544657        -0.052909         4.604080
 C         0.343964        -0.343105         3.247033
 C         0.313018        -1.803293         2.737389
 C        -0.959146        -1.062167         2.441016
 C        -0.965143        -0.437098         1.050193
 C         0.342328         0.340979         0.940915
 C         0.738544         0.948145        -0.330878
 O         1.302625        -0.283896         0.025301
 C         0.865727         0.684211         2.294168
 H        -0.297495        -0.143048         5.064292
 H         0.831767        -1.898303         1.808718
 H         0.286215        -2.518371         3.519138
 H        -1.893868        -1.318530         2.962395
 H        -1.234660        -1.096922         0.136372
 H        -1.671875         0.323816         1.228292
 H         0.013826         1.187197        -1.189051
 H         1.451389         1.801102        -0.225193
 H         1.914048         0.917253         2.211158
 H         0.415188         1.623037         2.585581
