19
Iteration:  4368
 O         0.224108        -0.099620         4.556006
 C         0.428163        -0.399382         3.156984
 C         0.439351        -1.785641         2.832442
 C        -0.855330        -1.011975         2.477913
 C        -1.059538        -0.329630         1.163311
 C         0.337753         0.284500         0.853662
 C         0.750052         1.063179        -0.292278
 O         1.224137        -0.316202        -0.025245
 C         1.022230         0.590242         2.292590
 H         0.826577         0.641315         4.554571
 H         1.063915        -2.244443         2.057362
 H         0.315836        -2.467397         3.617961
 H        -1.665409        -1.349533         3.163174
 H        -1.310390        -1.013527         0.280269
 H        -1.819373         0.466233         1.041876
 H         0.023693         1.114280        -1.119976
 H         1.549857         1.739421        -0.207958
 H         2.108286         0.742061         2.351408
 H         0.487099         1.506664         2.679819
