19
Iteration:  2773charge 0 multiplicity 1
 O         0.245233        -0.030128         4.574312
 C         0.325698        -0.407867         3.218583
 C         0.011885        -1.900423         3.060654
 C        -0.987334        -0.834465         2.573299
 C        -0.883798        -0.509985         1.041730
 C         0.497403         0.159769         0.916585
 C         0.728506         1.244893        -0.171469
 O         1.315385        -0.069581        -0.327688
 C         1.297414         0.271612         2.193978
 H        -0.420859         0.708633         4.578714
 H         0.612586        -2.548323         2.451714
 H        -0.208575        -2.268166         4.067482
 H        -1.939802        -0.587624         2.998321
 H        -0.948058        -1.430740         0.390117
 H        -1.727878         0.140694         0.717951
 H        -0.006289         1.500245        -0.936863
 H         1.444013         2.108688        -0.027011
 H         2.282139        -0.164985         2.004226
 H         1.577862         1.279428         2.528480
