19
Iteration:  4630charge 0 multiplicity 1
 O         0.349733         0.014540         4.644605
 C         0.323696        -0.441168         3.223532
 C         0.443271        -1.888764         2.918498
 C        -0.903101        -1.063089         2.601216
 C        -0.943295        -0.515299         1.041893
 C         0.330863         0.320894         0.855358
 C         0.662133         1.126094        -0.300777
 O         1.281190        -0.156132        -0.202046
 C         0.996130         0.605515         2.275450
 H        -0.573094         0.330545         4.840537
 H         0.955320        -2.243400         2.062016
 H         0.628841        -2.694640         3.652672
 H        -1.841465        -1.195524         3.150593
 H        -1.086032        -1.467764         0.384970
 H        -1.865412         0.001901         0.865538
 H         0.001501         1.194463        -1.210685
 H         1.462534         2.038584        -0.443174
 H         2.048401         0.333727         2.286512
 H         0.772759         1.667126         2.673953
