19
Iteration:  1569
 O         0.250760        -0.108663         4.628860
 C         0.330356        -0.405162         3.248019
 C         0.197181        -1.831562         2.797660
 C        -0.936255        -0.918381         2.444791
 C        -0.977668        -0.178345         1.069346
 C         0.369716         0.379477         0.888839
 C         0.897499         1.051523        -0.369321
 O         1.251804        -0.353591        -0.032489
 C         1.061028         0.476173         2.289427
 H         0.944755        -0.580516         5.137967
 H         0.930625        -2.262967         2.109330
 H        -0.055047        -2.386439         3.642640
 H        -1.870225        -0.938542         3.022192
 H        -1.191523        -0.944255         0.347048
 H        -1.812225         0.585415         1.040363
 H         0.228132         1.105538        -1.187199
 H         1.762067         1.738293        -0.253623
 H         2.197328         0.123037         2.227699
 H         1.023731         1.496998         2.671254
