19
Iteration:  3107
 O         0.292070         0.039371         4.411076
 C         0.376601        -0.464612         3.152024
 C         0.138692        -1.933200         3.044844
 C        -0.982760        -0.913267         2.504231
 C        -1.005235        -0.333773         1.100972
 C         0.427318         0.266588         0.902962
 C         0.821612         1.168537        -0.191147
 O         1.331054        -0.202499        -0.157490
 C         1.143445         0.409422         2.224111
 H        -0.198368        -0.553346         5.012628
 H         0.869622        -2.515249         2.564322
 H        -0.211763        -2.452617         3.957082
 H        -1.851073        -1.174598         3.151161
 H        -1.206499        -0.885469         0.230281
 H        -1.658051         0.532841         1.236401
 H         0.031728         1.216144        -1.008460
 H         1.447074         2.091144        -0.101690
 H         2.174378         0.043883         2.018445
 H         1.111218         1.342640         2.738806
