19
Iteration:  2784charge 0 multiplicity 1
 O         0.286388        -0.034104         4.559566
 C         0.306557        -0.438212         3.225135
 C        -0.008400        -1.888541         3.060995
 C        -1.005560        -0.836139         2.572685
 C        -0.981568        -0.569633         1.096835
 C         0.506802         0.290462         0.837921
 C         0.745069         1.196917        -0.205833
 O         1.399334        -0.026530        -0.251048
 C         1.240508         0.280647         2.160650
 H         0.054068         0.953196         4.621121
 H         0.510349        -2.464845         2.299881
 H        -0.318269        -2.465473         3.937345
 H        -1.832803        -0.852403         3.231401
 H        -0.860484        -1.543701         0.536935
 H        -1.713637         0.087949         0.611626
 H        -0.046748         1.378886        -0.924744
 H         1.523122         1.980810        -0.007808
 H         2.073638        -0.408646         2.075685
 H         1.510836         1.309223         2.421745
