19
Iteration:  1872charge 0 multiplicity 1
 O         0.074509        -0.139284         4.574392
 C         0.398752        -0.434420         3.186336
 C         0.411861        -1.797228         2.621368
 C        -0.875636        -0.939245         2.452689
 C        -1.022240        -0.058441         1.200662
 C         0.395862         0.355174         0.939660
 C         0.967479         0.895530        -0.336745
 O         1.131880        -0.474116         0.049961
 C         1.025441         0.646877         2.288450
 H         0.934888        -0.092880         5.018366
 H         1.061557        -2.003180         1.741764
 H         0.199964        -2.641311         3.301085
 H        -1.714044        -1.163197         3.084292
 H        -1.455470        -0.684402         0.366371
 H        -1.539405         0.917990         1.552984
 H         0.400199         1.151948        -1.166933
 H         1.821059         1.593941        -0.282863
 H         2.031099         0.476145         2.138708
 H         0.833322         1.654341         2.754436
