19
Iteration:  2903
 O         0.194673        -0.004158         4.519108
 C         0.260602        -0.442534         3.148171
 C         0.385877        -1.816519         2.746694
 C        -0.878642        -0.957757         2.390187
 C        -0.941291        -0.113182         1.173309
 C         0.541529         0.327630         0.952469
 C         0.764555         1.042793        -0.289688
 O         1.169651        -0.470832         0.006335
 C         1.010936         0.538360         2.328225
 H         0.655390        -0.587416         5.104680
 H         1.308905        -1.922713         2.150137
 H         0.184866        -2.630581         3.401691
 H        -1.751486        -1.294456         2.793373
 H        -1.214490        -0.648774         0.218775
 H        -1.660511         0.753330         1.406194
 H        -0.020678         1.108971        -0.924546
 H         1.718846         1.436734        -0.395423
 H         2.082211         0.293284         2.507808
 H         0.645328         1.569965         2.660344
