19
Iteration:  2692
 O         0.295667         0.195805         4.440458
 C         0.335309        -0.417777         3.150863
 C         0.135163        -1.922022         3.072369
 C        -0.957541        -0.965997         2.471864
 C        -1.044037        -0.374418         1.019581
 C         0.380817         0.250477         0.908385
 C         0.779862         1.223907        -0.086729
 O         1.367559        -0.157603        -0.206631
 C         1.228272         0.186961         2.219297
 H         0.020807        -0.419290         5.115875
 H         0.740315        -2.681366         2.519210
 H        -0.141710        -2.412953         3.972633
 H        -1.946669        -1.005757         2.981125
 H        -1.222610        -1.157520         0.254334
 H        -2.003197         0.344458         1.017183
 H         0.342842         1.642801        -0.964584
 H         1.339536         1.923651         0.398309
 H         2.160865        -0.417373         1.995094
 H         1.318286         1.237377         2.613299
