19
Iteration:  2574
 O         0.283495         0.097051         4.540266
 C         0.258564        -0.568847         3.231520
 C         0.272066        -1.920107         2.694461
 C        -0.893914        -0.966417         2.410773
 C        -0.971738        -0.107252         1.153918
 C         0.438975         0.265033         0.926341
 C         0.911646         1.003442        -0.263651
 O         1.202258        -0.420803         0.011283
 C         0.960320         0.627619         2.316289
 H         1.115650        -0.271423         4.903807
 H         1.028625        -2.245699         1.999138
 H         0.037275        -2.742641         3.293318
 H        -1.795938        -1.359993         2.872415
 H        -1.285548        -0.601694         0.254618
 H        -1.609969         0.689139         1.404433
 H         0.152754         1.355496        -1.059408
 H         1.764143         1.759619        -0.216998
 H         2.017641         0.381209         2.166565
 H         0.593955         1.636914         2.649056
