19
Iteration:  2279charge 0 multiplicity 1
 O         0.256778        -0.074953         4.595407
 C         0.411531        -0.473364         3.211642
 C         0.044452        -1.884257         2.869752
 C        -0.888752        -0.819459         2.486960
 C        -1.004996        -0.289161         1.093939
 C         0.431497         0.306696         0.881478
 C         0.739665         1.021547        -0.335376
 O         1.430270        -0.232427        -0.055655
 C         1.095067         0.496674         2.248467
 H         0.989974        -0.603679         5.023706
 H         0.388937        -2.385341         1.968794
 H        -0.310067        -2.443306         3.702980
 H        -1.855371        -0.726681         3.102495
 H        -1.314278        -1.140502         0.433541
 H        -1.756478         0.432987         0.713082
 H        -0.096862         1.077679        -1.096223
 H         1.348318         1.926613        -0.302114
 H         2.164521         0.368934         2.351010
 H         1.021743         1.534016         2.709320
