19
Iteration:  3096
 O         0.295793         0.103843         4.508128
 C         0.286128        -0.498559         3.200354
 C         0.218528        -1.922790         2.978869
 C        -0.949159        -1.021047         2.467008
 C        -0.977473        -0.264844         1.103576
 C         0.470176         0.276047         0.910709
 C         0.819047         1.115765        -0.238525
 O         1.270309        -0.188176        -0.191911
 C         1.126671         0.370549         2.250584
 H        -0.154305        -0.550793         5.030624
 H         0.830798        -2.532109         2.392109
 H        -0.197773        -2.363086         3.898457
 H        -1.934223        -0.982610         2.964812
 H        -1.382318        -0.916865         0.397874
 H        -1.598596         0.606646         0.986251
 H         0.009332         1.531734        -0.898232
 H         1.721122         1.786665        -0.103906
 H         2.194045         0.137848         2.375761
 H         1.040600         1.399972         2.540620
