19
Iteration:   251
 O         0.240625        -0.113280         4.601982
 C         0.359589        -0.350729         3.230353
 C         0.142471        -1.833313         2.881433
 C        -0.875567        -0.764545         2.498555
 C        -0.913075        -0.388217         1.032604
 C         0.437950         0.301276         0.948674
 C         0.891096         0.990039        -0.321383
 O         1.169784        -0.339533        -0.154549
 C         1.072657         0.612817         2.325779
 H         0.764056        -0.750880         5.110899
 H         0.520101        -2.448834         2.056444
 H        -0.160105        -2.608648         3.658695
 H        -1.829122        -0.719412         3.025831
 H        -1.006860        -1.232643         0.214290
 H        -1.641691         0.459932         0.769737
 H         0.216102         1.293250        -1.094571
 H         1.902204         1.463864        -0.206741
 H         2.155088         0.794968         2.215052
 H         0.636019         1.611325         2.664187
