19
Iteration:  2336charge 0 multiplicity 1
 O         0.206364         0.121609         4.594345
 C         0.322725        -0.472423         3.271766
 C         0.106627        -1.915895         2.867211
 C        -0.889976        -0.884906         2.490682
 C        -0.928439        -0.359443         1.020556
 C         0.476018         0.222250         0.853207
 C         0.922771         1.184802        -0.117526
 O         1.145095        -0.248590        -0.251885
 C         1.108603         0.333960         2.271865
 H         1.053047        -0.065110         5.016063
 H         0.968579        -2.168664         2.339598
 H        -0.011045        -2.669274         3.619593
 H        -1.785981        -0.870838         3.037087
 H        -1.118578        -1.263733         0.417758
 H        -1.578732         0.569066         0.858499
 H         0.166291         1.530138        -0.798156
 H         1.777330         1.737523         0.147901
 H         2.129404        -0.080453         2.261163
 H         0.852993         1.441477         2.444844
