19
Iteration:  2283charge 0 multiplicity 1
 O         0.256083        -0.092321         4.602149
 C         0.393455        -0.471760         3.192533
 C         0.061193        -1.860827         2.908953
 C        -0.932678        -0.799317         2.505518
 C        -0.967263        -0.311364         1.097485
 C         0.443263         0.284634         0.870056
 C         0.744421         1.057866        -0.347046
 O         1.398505        -0.216958        -0.055148
 C         1.108627         0.474282         2.228132
 H         1.012575        -0.544277         4.991280
 H         0.390274        -2.356302         2.018059
 H        -0.325543        -2.523932         3.691158
 H        -1.852644        -0.816130         3.002301
 H        -1.282273        -1.145669         0.452596
 H        -1.744633         0.414772         0.729575
 H         0.025426         1.070327        -1.135657
 H         1.436333         1.860741        -0.176437
 H         2.259593         0.323501         2.265295
 H         0.907845         1.611019         2.667981
