19
Iteration:  1499charge 0 multiplicity 1
 O         0.338405        -0.124067         4.720874
 C         0.257701        -0.412714         3.289024
 C         0.375267        -1.752945         2.605410
 C        -0.860415        -0.857156         2.365315
 C        -1.065776        -0.037724         1.134058
 C         0.381365         0.362250         0.934324
 C         0.988587         0.910635        -0.327743
 O         1.174975        -0.545268        -0.043201
 C         0.923105         0.611076         2.318233
 H        -0.096194        -0.836650         5.227695
 H         1.201736        -1.833387         1.896364
 H         0.261540        -2.533644         3.435678
 H        -1.763011        -1.361297         2.704662
 H        -1.339953        -0.696054         0.267193
 H        -1.926020         0.766572         1.187234
 H         0.458616         1.043505        -1.272616
 H         1.876301         1.480547        -0.207232
 H         1.938650         0.475376         2.303250
 H         0.683401         1.743225         2.522369
