19
Iteration:  3991charge 0 multiplicity 1
 O         0.402212        -0.081343         4.588633
 C         0.330028        -0.402450         3.248240
 C         0.313126        -1.837662         2.812925
 C        -0.921285        -1.004323         2.521910
 C        -0.947613        -0.430692         1.064433
 C         0.397167         0.256770         0.949709
 C         0.788420         1.112846        -0.363097
 O         1.193713        -0.259007        -0.078447
 C         0.973050         0.619392         2.293093
 H        -0.267608         0.624548         4.819714
 H         1.017459        -2.194266         2.013790
 H         0.367035        -2.514438         3.638620
 H        -1.797559        -1.265061         3.174914
 H        -1.022319        -1.108896         0.185395
 H        -1.826252         0.201279         0.938789
 H         0.034448         1.185224        -1.177304
 H         1.442832         1.933800        -0.337071
 H         2.097410         0.520622         2.329297
 H         0.737037         1.715024         2.651452
