19
Iteration:  4654
 O         0.292505        -0.128518         4.601800
 C         0.367457        -0.338550         3.184310
 C         0.344881        -1.755637         2.873472
 C        -0.831328        -1.016902         2.485181
 C        -0.841258        -0.555984         1.085410
 C         0.373737         0.268009         0.880930
 C         0.534723         1.055335        -0.298401
 O         1.290618        -0.187973        -0.122029
 C         1.001115         0.624227         2.291931
 H         0.496844         0.824129         4.832815
 H         1.065179        -2.290279         2.216067
 H         0.248234        -2.344607         3.744266
 H        -1.789356        -1.318761         2.955403
 H        -1.051053        -1.298613         0.295133
 H        -1.728911         0.108609         1.139410
 H        -0.216924         1.193070        -1.068544
 H         1.157693         2.026983        -0.092152
 H         2.100353         0.681183         2.382893
 H         0.507812         1.535211         2.605603
