19
Iteration:   844charge 0 multiplicity 1
 O         0.177945        -0.057796         4.579630
 C         0.344395        -0.392842         3.208585
 C         0.286993        -1.803404         2.768914
 C        -0.811296        -0.853188         2.463912
 C        -1.003548        -0.201045         1.115630
 C         0.384302         0.298500         0.930266
 C         0.939337         1.031474        -0.264687
 O         1.107750        -0.452731        -0.020948
 C         1.065705         0.567833         2.257952
 H         0.676401        -0.826738         4.997209
 H         0.879663        -1.910118         1.785916
 H         0.094665        -2.694776         3.358434
 H        -1.748395        -1.156456         3.032883
 H        -1.223354        -0.927064         0.330228
 H        -1.684727         0.735681         1.064786
 H         0.396393         1.190853        -1.206125
 H         1.860655         1.586532        -0.134508
 H         2.197347         0.210199         2.109994
 H         1.005205         1.617646         2.684742
