19
Iteration:  4586
 O         0.190306         0.098655         4.477848
 C         0.330287        -0.451741         3.199370
 C         0.540817        -1.876772         2.957833
 C        -0.871132        -1.054807         2.466198
 C        -0.984370        -0.419331         1.067355
 C         0.422201         0.286666         0.930270
 C         0.617137         1.121186        -0.226282
 O         1.217468        -0.261543        -0.161745
 C         1.035044         0.508365         2.316967
 H         0.889624        -0.424821         4.965559
 H         1.090135        -2.225983         2.135823
 H         0.610298        -2.462887         3.913645
 H        -1.725908        -1.191066         3.114066
 H        -1.163328        -0.950600         0.035497
 H        -1.658516         0.384043         1.025007
 H        -0.226063         1.448415        -0.940925
 H         1.281787         2.090702        -0.003326
 H         2.100115         0.469622         2.163687
 H         0.699029         1.530483         2.710799
