19
Iteration:  4346
 O         0.300550        -0.001158         4.633881
 C         0.325245        -0.402193         3.303078
 C         0.288008        -1.981230         2.811857
 C        -0.837013        -1.053828         2.543114
 C        -0.902272        -0.435463         1.131549
 C         0.307744         0.387357         0.845346
 C         0.781383         1.063128        -0.325457
 O         1.259797        -0.243066        -0.129791
 C         0.900946         0.657197         2.234977
 H         1.173352         0.499336         4.639227
 H         0.947275        -2.233574         1.999889
 H         0.198163        -2.729313         3.592940
 H        -1.731962        -1.186973         3.180887
 H        -1.067688        -1.184764         0.275232
 H        -1.785610         0.227785         0.997338
 H         0.023122         1.300700        -1.101493
 H         1.568376         1.716295        -0.121918
 H         1.950555         0.369254         2.075106
 H         0.892089         1.733579         2.591564
