19
Iteration:  1980charge 0 multiplicity 1
 O         0.314004         0.070778         4.575677
 C         0.301000        -0.485683         3.274285
 C         0.048763        -1.867149         3.005273
 C        -0.933007        -0.881449         2.439957
 C        -0.930321        -0.401289         0.988418
 C         0.385193         0.288213         0.899676
 C         0.870395         1.197253        -0.204188
 O         1.273297        -0.198966        -0.237623
 C         1.140883         0.331220         2.303387
 H         0.739085        -0.524431         5.258547
 H         0.550838        -2.558855         2.297371
 H        -0.403105        -2.443818         3.799052
 H        -1.905862        -1.083634         2.950429
 H        -0.942095        -1.174306         0.161136
 H        -1.772699         0.377670         0.706698
 H         0.134830         1.424866        -0.921899
 H         1.775155         1.812223        -0.058485
 H         2.164274         0.020015         2.052223
 H         1.174601         1.462432         2.584759
