19
Iteration:   492charge 0 multiplicity 1
 O         0.181738         0.018436         4.538117
 C         0.352326        -0.444751         3.180141
 C         0.358494        -1.893516         2.682650
 C        -0.857668        -0.948031         2.423904
 C        -1.014086        -0.097923         1.182346
 C         0.387946         0.441304         0.959073
 C         0.916671         0.848044        -0.367186
 O         1.123046        -0.459958         0.047972
 C         1.052087         0.620282         2.333576
 H         0.785036        -0.529626         5.123679
 H         1.153095        -2.101093         1.944963
 H         0.250489        -2.755154         3.412917
 H        -1.884212        -1.273296         2.707731
 H        -1.399331        -0.680963         0.385223
 H        -1.610295         0.773905         1.432871
 H         0.257353         1.072035        -1.237521
 H         1.762201         1.681624        -0.397363
 H         2.157503         0.470403         2.336595
 H         0.799576         1.525354         2.905032
