19
Iteration:  3339
 O         0.499958        -0.121881         4.558664
 C         0.193649        -0.403872         3.240108
 C         0.169151        -1.808433         2.626243
 C        -1.063289        -0.880850         2.461535
 C        -1.140867        -0.061270         1.162907
 C         0.402669         0.466407         0.956466
 C         0.962330         0.755113        -0.362994
 O         1.446208        -0.421795         0.070011
 C         0.885748         0.601831         2.324792
 H         1.220910        -0.721145         4.895802
 H         0.809974        -1.837036         1.729282
 H         0.291897        -2.755256         3.287422
 H        -1.969351        -1.202351         2.875815
 H        -1.266912        -0.695438         0.320585
 H        -2.010051         0.664647         1.328925
 H         0.321111         0.746985        -1.210644
 H         1.677851         1.656444        -0.483749
 H         1.971587         0.717078         2.379567
 H         0.414074         1.520625         2.641709
