19
Iteration:  2646charge 0 multiplicity 1
 O         0.264619        -0.048716         4.631486
 C         0.358515        -0.448418         3.308505
 C        -0.010454        -1.828392         2.932015
 C        -0.998676        -0.817292         2.517912
 C        -0.852208        -0.464339         1.016025
 C         0.542062         0.269267         0.934496
 C         0.773117         1.120073        -0.287210
 O         1.270915        -0.210100        -0.329950
 C         1.149092         0.508718         2.324210
 H         0.851324        -0.553772         5.188157
 H         0.596995        -2.395170         2.201070
 H        -0.379272        -2.580657         3.698100
 H        -1.825237        -0.609991         3.044377
 H        -0.759492        -1.398692         0.431252
 H        -1.583335         0.178424         0.436533
 H        -0.092071         1.302080        -0.911357
 H         1.417003         1.917422        -0.350106
 H         2.177843         0.167251         2.423439
 H         0.997058         1.470058         2.781570
