19
Iteration:  4542
 O         0.177168        -0.109067         4.728946
 C         0.431949        -0.419779         3.254435
 C         0.413256        -1.878167         2.799224
 C        -0.790479        -1.010325         2.558155
 C        -0.979466        -0.377389         1.123898
 C         0.334598         0.318085         0.821904
 C         0.685318         1.034734        -0.374196
 O         1.250160        -0.221687        -0.144175
 C         1.015537         0.590089         2.260975
 H         0.235850         0.849781         4.855414
 H         0.972730        -1.926789         1.914124
 H         0.399115        -2.623996         3.575823
 H        -1.626611        -0.869550         3.229401
 H        -1.057450        -1.192028         0.291468
 H        -1.832490         0.235708         1.054334
 H         0.073690         0.989105        -1.336042
 H         1.357561         1.962324        -0.351751
 H         2.084911         0.583695         2.225401
 H         0.732472         1.612107         2.582370
