19
Iteration:  4833
 O         0.428612        -0.049292         4.694358
 C         0.362639        -0.421843         3.222002
 C         0.542499        -1.802058         2.788234
 C        -0.849300        -1.183295         2.477223
 C        -1.013644        -0.543105         1.090757
 C         0.256662         0.380377         0.848955
 C         0.720409         1.028754        -0.384192
 O         1.308165        -0.186578         0.004200
 C         0.754677         0.726170         2.268734
 H        -0.265753         0.661900         4.820483
 H         1.029240        -1.898182         1.760341
 H         0.774261        -2.610556         3.463556
 H        -1.674053        -1.379822         3.188806
 H        -1.028855        -1.292258         0.326557
 H        -1.940758         0.031885         0.912159
 H        -0.072415         1.050431        -1.117763
 H         1.423758         1.868463        -0.394127
 H         1.868438         0.867852         2.348307
 H         0.326895         1.675430         2.507070
