19
Iteration:  2303
 O         0.285041        -0.101573         4.589101
 C         0.221983        -0.372919         3.243290
 C         0.057764        -1.878209         2.903110
 C        -0.995003        -0.861820         2.574149
 C        -0.893580        -0.414955         1.093672
 C         0.473554         0.284026         0.891111
 C         0.896864         1.152528        -0.248971
 O         1.285704        -0.263505        -0.249577
 C         1.056200         0.474770         2.250580
 H         1.197824        -0.284809         4.801784
 H         0.725231        -2.248223         2.184416
 H         0.093639        -2.288295         3.879837
 H        -1.918389        -0.692833         3.110705
 H        -1.059116        -1.191940         0.324692
 H        -1.669920         0.311722         0.689490
 H         0.138064         1.400284        -1.002518
 H         1.635311         1.901895        -0.160972
 H         2.146708         0.157872         2.399258
 H         1.264484         1.596025         2.578200
