19
Iteration:  1555charge 0 multiplicity 1
 O         0.173162        -0.063286         4.551099
 C         0.378868        -0.480502         3.204728
 C         0.240814        -1.912795         2.822872
 C        -0.830287        -0.845564         2.405099
 C        -1.074803        -0.185366         1.093544
 C         0.382826         0.436350         0.947897
 C         0.900467         0.931086        -0.345261
 O         1.209705        -0.345862         0.045816
 C         1.163870         0.564198         2.280789
 H         0.515031        -0.779083         5.087567
 H         0.926016        -2.198396         2.027215
 H        -0.036191        -2.775782         3.455112
 H        -1.789530        -1.172054         2.951803
 H        -1.498425        -0.576878         0.158226
 H        -1.822995         0.716152         1.386687
 H         0.225989         1.054042        -1.202817
 H         1.648298         1.638709        -0.389735
 H         2.163025         0.367209         1.995879
 H         1.106090         1.609903         2.791630
