19
Iteration:  3467
 O         0.307077         0.105778         4.593562
 C         0.367072        -0.441209         3.239346
 C         0.075695        -2.003666         2.861664
 C        -0.912019        -0.868603         2.542154
 C        -0.917615        -0.442480         1.073960
 C         0.427275         0.350486         0.867597
 C         0.876931         1.149016        -0.258032
 O         1.185939        -0.293236        -0.224260
 C         1.162958         0.515169         2.340759
 H        -0.406831        -0.290000         5.094015
 H         0.434852        -2.493506         1.949709
 H         0.072835        -2.641563         3.821860
 H        -1.858043        -0.950228         2.973473
 H        -1.103976        -1.327707         0.435211
 H        -1.773465         0.205509         0.911583
 H         0.213477         1.211983        -1.111936
 H         1.742862         1.930404        -0.210474
 H         2.197169         0.093586         2.230647
 H         1.140624         1.589837         2.708738
