19
Iteration:  3013charge 0 multiplicity 1
 O         0.372151        -0.079942         4.585659
 C         0.339979        -0.410633         3.197819
 C         0.156695        -1.938887         2.768912
 C        -0.934977        -0.920853         2.462293
 C        -1.038722        -0.137332         1.097893
 C         0.403356         0.444906         0.865028
 C         0.907371         0.922903        -0.380981
 O         1.345302        -0.365396         0.031256
 C         0.940200         0.620042         2.315102
 H         0.593796        -0.911878         5.088336
 H         0.889180        -2.408953         2.033943
 H        -0.041413        -2.710564         3.614309
 H        -1.866832        -1.119509         3.087877
 H        -1.445627        -0.902931         0.327142
 H        -1.706741         0.750020         1.361683
 H         0.285560         0.804674        -1.242869
 H         1.516850         1.857930        -0.496072
 H         2.046136         0.640588         2.474237
 H         0.477068         1.592129         2.691738
