19
Iteration:   461
 O         0.295661        -0.078282         4.679930
 C         0.250242        -0.286617         3.208678
 C         0.416093        -1.789536         2.679129
 C        -0.964082        -0.864813         2.465754
 C        -1.042822        -0.145132         1.136750
 C         0.408118         0.257723         0.886965
 C         0.932147         0.887978        -0.271244
 O         1.148632        -0.478715        -0.070718
 C         1.046641         0.620618         2.262707
 H         0.055534        -0.941742         4.977363
 H         1.200564        -1.805359         1.923342
 H         0.590253        -2.698291         3.356905
 H        -1.931081        -1.289818         2.885244
 H        -1.401178        -0.889777         0.360527
 H        -1.638394         0.758563         1.081391
 H         0.261461         1.146888        -1.091990
 H         1.761496         1.672435         0.015516
 H         2.190480         0.507100         2.463065
 H         0.748462         1.711418         2.582748
