19
Iteration:  4384charge 0 multiplicity 1
 O         0.198220        -0.145509         4.554807
 C         0.345553        -0.358645         3.159728
 C         0.482478        -1.797298         2.734205
 C        -0.826179        -1.053661         2.502466
 C        -0.973394        -0.249355         1.175693
 C         0.386719         0.319295         0.969100
 C         0.711344         0.966004        -0.289256
 O         1.231587        -0.405497        -0.041271
 C         0.934708         0.699172         2.251267
 H         0.548793         0.643409         4.955033
 H         1.179628        -2.029587         1.921244
 H         0.581689        -2.628523         3.531777
 H        -1.723022        -1.146854         3.092439
 H        -1.349555        -0.752540         0.322272
 H        -1.627458         0.585860         1.485149
 H        -0.016729         1.130175        -1.093083
 H         1.459032         1.816919        -0.287291
 H         2.033993         0.520421         2.075473
 H         0.803702         1.780553         2.467479
