19
Iteration:  1470charge 0 multiplicity 1
 O         0.413469        -0.177844         4.506861
 C         0.298270        -0.356501         3.128340
 C         0.189963        -1.836391         2.696738
 C        -0.975595        -0.882067         2.489000
 C        -1.099436        -0.236735         1.133034
 C         0.427244         0.368124         0.943908
 C         0.997078         0.983129        -0.299098
 O         1.223621        -0.450371         0.095188
 C         0.981865         0.738242         2.301776
 H        -0.033959        -0.902262         5.034398
 H         0.675796        -2.186443         1.825780
 H         0.173235        -2.417835         3.589972
 H        -1.872204        -0.749720         3.206969
 H        -1.023453        -0.972293         0.380205
 H        -1.923570         0.423003         1.053234
 H         0.629983         1.025844        -1.336419
 H         1.924918         1.588074        -0.199395
 H         2.130252         0.536928         2.265246
 H         0.800578         1.793827         2.550386
