19
Iteration:   934
 O         0.270456        -0.072518         4.562420
 C         0.286817        -0.370814         3.152996
 C         0.053979        -1.848841         2.880475
 C        -1.008278        -0.820260         2.542399
 C        -0.934690        -0.348583         1.118249
 C         0.477761         0.239449         0.874574
 C         0.855666         1.132399        -0.214161
 O         1.292222        -0.241513        -0.110918
 C         1.097168         0.436651         2.197826
 H         1.228702        -0.097360         4.855684
 H         0.499390        -2.456078         2.074346
 H         0.010322        -2.466232         3.845939
 H        -1.875989        -0.770411         3.113761
 H        -0.923979        -1.333664         0.537542
 H        -1.846433         0.219023         0.888300
 H         0.286058         1.231435        -1.114956
 H         1.789313         1.746770        -0.093611
 H         2.166563        -0.076240         2.097025
 H         1.221163         1.418283         2.665427
