19
Iteration:  3174
 O         0.379755        -0.025820         4.639099
 C         0.246155        -0.365950         3.268749
 C         0.074092        -1.792228         2.960790
 C        -1.001147        -0.895746         2.475577
 C        -0.886454        -0.442183         0.980014
 C         0.540545         0.173104         0.904028
 C         0.784004         1.135821        -0.159038
 O         1.255077        -0.201166        -0.271940
 C         1.120217         0.465764         2.250674
 H         0.254981        -0.846109         5.119890
 H         0.735433        -2.364047         2.234443
 H        -0.132608        -2.284557         3.946213
 H        -2.073144        -1.051959         2.902453
 H        -1.074828        -1.241127         0.292258
 H        -1.599298         0.395457         0.913306
 H        -0.001121         1.387355        -0.917340
 H         1.517205         2.034014        -0.328723
 H         2.194273         0.171553         2.109631
 H         1.005148         1.518384         2.405715
