19
Iteration:  4668charge 0 multiplicity 1
 O         0.269488        -0.087110         4.647350
 C         0.359544        -0.384356         3.226505
 C         0.415454        -1.879572         2.895294
 C        -0.839029        -1.038237         2.454870
 C        -0.958379        -0.533419         1.019689
 C         0.388178         0.218779         0.918594
 C         0.550699         1.088204        -0.332399
 O         1.310295        -0.176053        -0.111441
 C         0.971810         0.757565         2.324452
 H         1.086226         0.409689         4.849416
 H         0.967776        -2.299848         2.010555
 H         0.355298        -2.507440         3.822509
 H        -1.746960        -1.025570         3.065731
 H        -1.072662        -1.244553         0.231579
 H        -1.759973         0.281430         0.850804
 H        -0.162422         0.855546        -1.149548
 H         1.108229         1.941568        -0.334351
 H         2.069862         0.735122         2.167358
 H         0.724986         1.738575         2.556012
