19
Iteration:  1647
 O         0.240458         0.046613         4.536864
 C         0.276798        -0.494027         3.192191
 C         0.082376        -1.919314         2.988128
 C        -1.030024        -0.936776         2.517705
 C        -0.916192        -0.365993         1.089226
 C         0.461890         0.406628         0.968823
 C         0.808626         1.111307        -0.335243
 O         1.331885        -0.141337        -0.194896
 C         1.213784         0.345212         2.295221
 H         1.053184        -0.406913         4.946020
 H         0.334802        -2.631864         2.266743
 H        -0.345645        -2.327063         3.961746
 H        -1.916054        -0.977078         3.033028
 H        -1.118972        -0.918471         0.169975
 H        -1.874959         0.222925         1.004331
 H         0.194330         1.329007        -1.200345
 H         1.511956         2.005220        -0.400641
 H         2.212855        -0.362475         2.161698
 H         1.529924         1.253767         2.715007
