19
Iteration:  1192charge 0 multiplicity 1
 O         0.133889        -0.110186         4.562879
 C         0.378657        -0.402708         3.155782
 C         0.221007        -1.850036         2.761493
 C        -0.881555        -0.832676         2.503528
 C        -0.999583        -0.161916         1.148592
 C         0.402139         0.292307         0.887115
 C         0.956137         1.018774        -0.202701
 O         1.183540        -0.466097        -0.084248
 C         1.111578         0.563274         2.260118
 H         0.982605         0.007438         4.987442
 H         0.904094        -2.227423         1.857791
 H         0.072054        -2.613568         3.608404
 H        -1.829328        -0.948860         3.082896
 H        -1.394831        -0.830648         0.443952
 H        -1.504965         0.830421         1.240699
 H         0.189941         1.293239        -0.894905
 H         1.796589         1.777988        -0.232819
 H         2.071075         0.256012         2.133114
 H         0.871512         1.566893         2.670196
