19
Iteration:   340charge 0 multiplicity 1
 O         0.105121        -0.048039         4.592581
 C         0.413756        -0.397058         3.214021
 C         0.164075        -1.849010         2.932097
 C        -0.937758        -0.909002         2.544356
 C        -0.904753        -0.317525         1.068818
 C         0.476718         0.270532         0.946185
 C         0.918725         1.137233        -0.322459
 O         1.122965        -0.371406        -0.253911
 C         1.168238         0.525854         2.306563
 H         0.891651         0.038365         5.189589
 H         0.782873        -2.339814         2.057182
 H        -0.077157        -2.542701         3.759711
 H        -1.812130        -0.947885         3.160066
 H        -1.195339        -1.084820         0.251886
 H        -1.712384         0.368772         0.779658
 H         0.174018         1.455256        -0.863635
 H         1.864444         1.703314        -0.128697
 H         2.287404         0.340600         2.197990
 H         1.055379         1.608899         2.621563
