19
Iteration:  1824
 O         0.244027        -0.181267         4.556043
 C         0.258350        -0.358322         3.161573
 C         0.323045        -1.786836         2.660544
 C        -0.887153        -0.958218         2.408671
 C        -1.015706        -0.135481         1.139471
 C         0.383051         0.443091         0.979237
 C         1.008800         0.895952        -0.330946
 O         1.141623        -0.482290         0.099799
 C         0.972711         0.668562         2.304697
 H         1.161028        -0.289668         4.877073
 H         0.943249        -1.970563         1.787861
 H         0.444985        -2.410405         3.516969
 H        -1.830916        -1.344512         2.893497
 H        -1.175701        -0.660272         0.171900
 H        -1.700648         0.728783         1.605127
 H         0.284786         1.129072        -1.201923
 H         1.904919         1.490674        -0.407947
 H         2.084496         0.482917         2.470863
 H         0.690851         1.651948         2.642589
