19
Iteration:  4249
 O         0.320658         0.167549         4.591497
 C         0.320189        -0.429647         3.242095
 C         0.309358        -1.913495         2.951481
 C        -0.844964        -1.118665         2.454968
 C        -0.904626        -0.455264         1.074714
 C         0.398627         0.273492         0.888760
 C         0.643862         1.137885        -0.192490
 O         1.177142        -0.124697        -0.184781
 C         1.124095         0.456672         2.196092
 H        -0.582806        -0.178599         4.854442
 H         1.156064        -2.344492         2.380836
 H         0.142825        -2.565310         3.917967
 H        -1.711748        -1.467164         3.060022
 H        -0.898791        -1.156857         0.260036
 H        -1.800877         0.189732         0.845492
 H        -0.117334         1.314491        -0.982597
 H         1.429648         1.839672        -0.206336
 H         2.206213         0.209129         1.969529
 H         1.162619         1.498928         2.727137
