19
Iteration:  4587
 O         0.195071         0.104042         4.480427
 C         0.329851        -0.456428         3.196790
 C         0.548721        -1.891352         2.959849
 C        -0.871287        -1.045984         2.473768
 C        -0.987864        -0.424610         1.058809
 C         0.419173         0.287869         0.918044
 C         0.611669         1.125865        -0.220481
 O         1.220704        -0.263702        -0.158150
 C         1.033808         0.518421         2.310633
 H         0.823119        -0.463066         4.977626
 H         1.080539        -2.211301         2.125791
 H         0.576617        -2.445865         3.928524
 H        -1.741101        -1.218518         3.106965
 H        -1.155388        -0.945959         0.048279
 H        -1.657958         0.393555         1.021191
 H        -0.209933         1.450997        -0.896595
 H         1.293330         2.070672         0.002668
 H         2.100326         0.477013         2.175248
 H         0.731059         1.506558         2.702513
