19
Iteration:  1544
 O         0.128238        -0.029158         4.499032
 C         0.369491        -0.447976         3.130728
 C         0.335922        -1.943727         2.716324
 C        -0.861015        -0.965440         2.453058
 C        -1.006018        -0.056097         1.191260
 C         0.413383         0.442959         0.961126
 C         0.877977         0.947826        -0.355930
 O         1.191024        -0.441363         0.083144
 C         1.140936         0.601544         2.274951
 H         0.230038        -0.801312         5.047080
 H         0.911271        -2.349368         1.894539
 H        -0.141582        -2.656770         3.412747
 H        -1.675444        -1.021529         3.250635
 H        -1.330988        -0.641365         0.314927
 H        -1.749550         0.840943         1.386822
 H         0.100578         1.034395        -1.113627
 H         1.659610         1.616071        -0.320177
 H         2.175999         0.416910         2.184618
 H         0.969077         1.565866         2.892581
