19
Iteration:  4762charge 0 multiplicity 1
 O         0.210695        -0.159699         4.631147
 C         0.348818        -0.360338         3.239018
 C         0.623101        -1.745639         2.678286
 C        -0.790984        -1.134056         2.508598
 C        -1.072712        -0.431898         1.288019
 C         0.375005         0.428181         0.888571
 C         0.747961         0.983926        -0.432202
 O         1.269212        -0.298301        -0.008420
 C         0.812544         0.750124         2.245125
 H         0.636497         0.690019         4.937103
 H         1.188475        -1.957162         1.781242
 H         0.582551        -2.508325         3.415219
 H        -1.712722        -1.553279         2.936208
 H        -1.027007        -1.060843         0.312572
 H        -2.089608        -0.094055         1.387311
 H        -0.034285         0.750785        -1.157079
 H         1.562841         1.817367        -0.567057
 H         1.901114         1.014830         2.149519
 H         0.295451         1.763786         2.588311
