19
Iteration:   173charge 0 multiplicity 1
 O         0.236608         0.031216         4.466246
 C         0.366366        -0.449329         3.161331
 C         0.128971        -1.964869         2.724973
 C        -0.949812        -0.885443         2.503429
 C        -0.968332        -0.221538         1.179505
 C         0.482918         0.317510         0.953684
 C         0.905054         0.972011        -0.280149
 O         1.238893        -0.376553         0.017306
 C         1.047100         0.560624         2.302794
 H         1.120745         0.073427         4.906134
 H         0.704802        -2.236037         1.843272
 H         0.079913        -2.681334         3.515594
 H        -1.832899        -0.942737         3.182094
 H        -1.436724        -0.755331         0.258022
 H        -1.588251         0.758681         1.210202
 H         0.169232         1.050321        -1.207051
 H         1.598145         1.762504        -0.268102
 H         2.119840         0.391190         2.225931
 H         0.813379         1.576575         2.775548
