19
Iteration:  3293
 O         0.359995        -0.227449         4.553887
 C         0.385480        -0.386732         3.142153
 C         0.247711        -1.781034         2.732852
 C        -0.954733        -0.853707         2.540963
 C        -1.052189        -0.213021         1.150984
 C         0.429424         0.447540         0.904773
 C         0.956327         0.952393        -0.322030
 O         1.216290        -0.473058         0.047412
 C         0.973760         0.662020         2.267517
 H        -0.544234        -0.490623         4.872181
 H         0.790210        -2.219429         1.848779
 H         0.070654        -2.486771         3.522961
 H        -1.799835        -0.815468         3.213006
 H        -1.168605        -0.974835         0.367688
 H        -1.685145         0.715599         1.017115
 H         0.280864         1.056431        -1.129449
 H         1.854789         1.580604        -0.462220
 H         2.091093         0.709533         2.177518
 H         0.574213         1.619864         2.674510
