19
Iteration:  1643charge 0 multiplicity 1
 O         0.257574         0.015580         4.545802
 C         0.306996        -0.494856         3.179740
 C         0.017459        -1.902706         2.988173
 C        -1.004202        -0.928118         2.499212
 C        -0.917483        -0.382291         1.106656
 C         0.458170         0.381049         0.937109
 C         0.817017         1.134793        -0.354323
 O         1.340694        -0.140761        -0.157989
 C         1.179786         0.340985         2.279440
 H         1.118203        -0.276151         4.854480
 H         0.473065        -2.606623         2.249437
 H        -0.274539        -2.257261         3.930885
 H        -1.885356        -0.822803         3.210065
 H        -1.061286        -1.002439         0.206656
 H        -1.936000         0.244312         0.979591
 H         0.213709         1.261913        -1.248480
 H         1.506236         1.988208        -0.238343
 H         2.034811        -0.209332         2.162762
 H         1.451952         1.329000         2.776603
