19
Iteration:  4809charge 0 multiplicity 1
 O         0.396305        -0.052040         4.532869
 C         0.280151        -0.324562         3.181336
 C         0.518980        -1.754555         2.695246
 C        -0.767877        -1.150106         2.452860
 C        -0.934562        -0.471595         1.164738
 C         0.298051         0.351720         0.889184
 C         0.608760         0.968990        -0.350770
 O         1.305471        -0.271126         0.063916
 C         0.805955         0.773313         2.336975
 H        -0.166403        -0.601190         5.130708
 H         1.318249        -1.964304         1.965699
 H         0.407823        -2.438763         3.585846
 H        -1.534520        -1.538684         3.124279
 H        -0.976729        -1.170965         0.408401
 H        -1.790179         0.192463         1.006814
 H        -0.087664         0.874115        -1.235647
 H         1.241617         1.787572        -0.282048
 H         1.914934         1.036824         2.443163
 H         0.246015         1.702773         2.594240
