19
Iteration:  1946
 O         0.401693        -0.006850         4.447916
 C         0.324888        -0.447777         3.207737
 C         0.033232        -1.895476         2.868205
 C        -1.097725        -0.872730         2.608520
 C        -0.966858        -0.408642         1.085774
 C         0.447074         0.266521         0.923753
 C         0.827623         1.091087        -0.208293
 O         1.480917        -0.197674        -0.103625
 C         1.002031         0.484908         2.235484
 H         0.783653        -0.650619         5.100567
 H         0.341271        -2.447325         2.035379
 H        -0.244519        -2.461542         3.720606
 H        -2.060410        -0.795099         3.035588
 H        -1.268392        -1.081055         0.242795
 H        -1.794263         0.407523         0.939233
 H         0.302098         1.335577        -1.144427
 H         1.512200         1.943302        -0.140734
 H         2.101942         0.249717         2.298786
 H         0.879356         1.585182         2.471758
