19
Iteration:  4093
 O         0.489266        -0.063195         4.535461
 C         0.248864        -0.314115         3.208669
 C         0.485328        -1.785971         2.700839
 C        -0.837447        -1.069212         2.449037
 C        -0.987915        -0.310352         1.080477
 C         0.302416         0.402761         0.956631
 C         0.860489         0.975238        -0.332059
 O         1.132158        -0.425383         0.125176
 C         0.774408         0.717140         2.267011
 H         0.064941        -0.767001         5.019187
 H         1.233972        -1.969249         1.946163
 H         0.419306        -2.508105         3.437888
 H        -1.624361        -1.531601         2.952542
 H        -1.158591        -1.097561         0.259036
 H        -1.775006         0.500505         1.200318
 H         0.262373         1.077713        -1.210314
 H         1.802307         1.608174        -0.375040
 H         1.888472         0.770093         2.365332
 H         0.298046         1.773764         2.597097
