19
Iteration:  4575
 O         0.167518         0.020363         4.508320
 C         0.329973        -0.400111         3.204749
 C         0.441964        -1.811776         2.904719
 C        -0.824281        -1.137075         2.458448
 C        -0.922339        -0.376849         1.144932
 C         0.402539         0.268302         0.962625
 C         0.657348         1.087490        -0.267638
 O         1.190447        -0.199223        -0.186003
 C         1.041616         0.503753         2.305798
 H         1.062304         0.269425         4.852047
 H         1.176019        -2.056693         2.177595
 H         0.425413        -2.581911         3.696034
 H        -1.699144        -1.149597         3.091706
 H        -1.155124        -1.104938         0.294235
 H        -1.731845         0.292656         1.260817
 H        -0.114842         1.074878        -1.079925
 H         1.403667         1.981543        -0.242162
 H         2.119111         0.410661         2.341440
 H         0.763285         1.545069         2.606526
