19
Iteration:  2950charge 0 multiplicity 1
 O         0.261293        -0.318070         4.561687
 C         0.317300        -0.361603         3.168874
 C         0.344405        -1.706863         2.651485
 C        -0.918198        -0.830675         2.550573
 C        -1.089386        -0.174991         1.153630
 C         0.304496         0.373094         0.875648
 C         1.033149         0.885328        -0.397644
 O         1.233444        -0.405696         0.162094
 C         0.960939         0.680507         2.258086
 H         1.151376        -0.320818         5.002936
 H         0.871957        -2.055947         1.739105
 H         0.358239        -2.454465         3.515377
 H        -1.810802        -1.095943         3.227074
 H        -1.344844        -1.046869         0.452482
 H        -1.739935         0.721089         1.057326
 H         0.449393         0.758365        -1.306641
 H         1.729700         1.689679        -0.083722
 H         2.045737         0.731177         2.054028
 H         0.441777         1.692907         2.365529
