19
Iteration:  1131charge 0 multiplicity 1
 O         0.196892        -0.131531         4.529906
 C         0.357363        -0.443165         3.170969
 C         0.274195        -1.831209         2.623988
 C        -0.896106        -0.888314         2.434939
 C        -0.983047        -0.015487         1.174149
 C         0.407900         0.347991         0.923318
 C         0.924006         0.871646        -0.312943
 O         1.178536        -0.481596         0.109641
 C         1.066189         0.671118         2.313748
 H         0.704623        -0.810846         4.950173
 H         0.977009        -2.190478         1.857753
 H         0.171616        -2.478940         3.452459
 H        -1.786917        -1.047613         3.112823
 H        -1.498895        -0.653975         0.383747
 H        -1.640718         0.879378         1.211153
 H         0.135670         0.820926        -1.091049
 H         1.663806         1.665382        -0.377906
 H         2.250503         0.836310         2.396733
 H         0.712789         1.656659         2.660150
