19
Iteration:  3337
 O         0.505162        -0.107589         4.555772
 C         0.205550        -0.415860         3.233616
 C         0.168691        -1.808617         2.617423
 C        -1.082034        -0.882362         2.454000
 C        -1.122410        -0.065836         1.165071
 C         0.386018         0.474813         0.954779
 C         0.958565         0.755293        -0.337587
 O         1.447769        -0.421718         0.069988
 C         0.886993         0.598180         2.322429
 H         1.168110        -0.759030         4.928460
 H         0.832556        -1.842714         1.709917
 H         0.239526        -2.711373         3.270101
 H        -1.947890        -1.209790         2.926182
 H        -1.240228        -0.688918         0.256772
 H        -2.040453         0.623951         1.362878
 H         0.321648         0.719195        -1.158673
 H         1.676584         1.607499        -0.574024
 H         2.003265         0.702980         2.424756
 H         0.436117         1.583336         2.656588
