19
Iteration:  1679charge 0 multiplicity 1
 O         0.118682         0.143902         4.569173
 C         0.348225        -0.465278         3.281300
 C         0.196259        -1.883344         2.890058
 C        -0.867785        -0.848165         2.455478
 C        -0.869186        -0.309997         1.055679
 C         0.526839         0.135503         0.894231
 C         0.733996         1.207926        -0.146541
 O         1.182834        -0.217015        -0.292834
 C         1.218924         0.230484         2.305795
 H         0.089226        -0.517686         5.275623
 H         0.738289        -2.488357         2.208292
 H        -0.401175        -2.551273         3.567302
 H        -1.747106        -0.822207         2.970218
 H        -1.201084        -0.933914         0.224328
 H        -1.500718         0.695719         1.294140
 H         0.060578         1.388141        -0.926357
 H         1.659617         1.816818         0.026822
 H         2.345353        -0.069645         2.342057
 H         1.189951         1.278600         2.479172
