19
Iteration:   154charge 0 multiplicity 1
 O         0.137739        -0.115186         4.626715
 C         0.313832        -0.401626         3.212540
 C         0.302324        -1.836226         2.831769
 C        -0.879428        -0.880193         2.493858
 C        -1.015149        -0.149362         1.182400
 C         0.405247         0.419899         0.881225
 C         1.016392         0.970989        -0.373793
 O         1.135984        -0.450620        -0.160845
 C         1.093608         0.538738         2.319894
 H         0.987035         0.131218         5.012706
 H         0.880249        -2.340303         2.022138
 H        -0.052319        -2.596243         3.596791
 H        -1.823877        -1.117949         3.047731
 H        -1.238105        -0.812583         0.291403
 H        -1.851113         0.519658         1.198495
 H         0.356035         1.332961        -1.136958
 H         1.979663         1.441627        -0.202578
 H         2.169695         0.455606         2.296996
 H         0.867958         1.511762         2.567883
