19
Iteration:   828charge 0 multiplicity 1
 O         0.207373         0.036564         4.602790
 C         0.313505        -0.433895         3.264299
 C         0.397204        -1.797505         2.600557
 C        -0.947283        -0.992095         2.392066
 C        -1.056397        -0.126038         1.124263
 C         0.439297         0.419176         0.931134
 C         0.950070         0.905717        -0.287182
 O         1.084996        -0.470122        -0.003980
 C         1.107501         0.522522         2.346307
 H         0.652549        -0.509749         5.312830
 H         1.191256        -1.948836         1.948609
 H         0.234041        -2.641198         3.298411
 H        -1.834646        -1.198373         2.929528
 H        -1.351139        -0.580272         0.159079
 H        -1.816025         0.565676         1.346170
 H         0.295457         1.270684        -1.068078
 H         1.874516         1.551310        -0.298301
 H         2.127582         0.306466         2.348636
 H         0.998053         1.569078         2.710087
