19
Iteration:  4413
 O         0.208197        -0.153583         4.681431
 C         0.413367        -0.437071         3.260547
 C         0.507130        -1.738947         2.648039
 C        -0.841191        -0.996179         2.496050
 C        -1.020810        -0.226735         1.163739
 C         0.401172         0.419291         0.903731
 C         0.760721         0.905600        -0.513655
 O         1.189423        -0.411991         0.009182
 C         0.878701         0.680927         2.388768
 H         0.680361         0.644166         4.990098
 H         1.353930        -1.920618         1.944538
 H         0.533601        -2.690001         3.088409
 H        -1.714086        -1.357934         3.064151
 H        -1.234427        -0.872490         0.277523
 H        -1.883525         0.520367         1.181336
 H         0.041738         0.968473        -1.313041
 H         1.593478         1.567220        -0.577326
 H         1.964711         0.604079         2.163865
 H         0.614048         1.718155         2.698857
