19
Iteration:  4124charge 0 multiplicity 1
 O         0.439689        -0.043500         4.577335
 C         0.356783        -0.386890         3.232054
 C         0.392738        -1.788434         2.714538
 C        -0.872674        -1.005704         2.532684
 C        -1.120594        -0.369316         1.158725
 C         0.356285         0.318156         0.880564
 C         0.765835         0.997065        -0.306744
 O         1.359838        -0.318718        -0.029584
 C         0.838255         0.640494         2.267197
 H        -0.399125        -0.503549         4.873746
 H         1.026844        -1.932333         1.918956
 H         0.423883        -2.587681         3.392770
 H        -1.639058        -1.245120         3.271977
 H        -1.291642        -1.113973         0.326431
 H        -1.754706         0.465889         1.149812
 H         0.010265         0.975269        -1.050854
 H         1.574191         1.753212        -0.365645
 H         1.905890         0.923835         2.182308
 H         0.271116         1.619205         2.516088
