19
Iteration:  3997
 O         0.386995        -0.097429         4.674467
 C         0.317461        -0.412462         3.248554
 C         0.317811        -1.861694         2.788324
 C        -0.940881        -1.026441         2.516416
 C        -0.921841        -0.403459         1.065125
 C         0.403385         0.312637         0.907811
 C         0.754763         1.090397        -0.361770
 O         1.181632        -0.283404        -0.046833
 C         1.010531         0.669286         2.236416
 H        -0.061074         0.729462         4.788182
 H         0.987710        -2.140381         1.913950
 H         0.274539        -2.579101         3.639114
 H        -1.716654        -1.390763         3.136590
 H        -0.883697        -1.075944         0.194009
 H        -1.829101         0.221852         0.965398
 H         0.061745         1.128838        -1.198599
 H         1.561878         1.912813        -0.430587
 H         2.074071         0.672240         2.388332
 H         0.647041         1.613386         2.482325
