19
Iteration:  2956
 O         0.294374        -0.356480         4.548028
 C         0.356872        -0.304274         3.120240
 C         0.358375        -1.685713         2.686028
 C        -0.975087        -0.797329         2.545860
 C        -1.100797        -0.210287         1.120898
 C         0.328218         0.330204         0.917351
 C         0.982055         0.861940        -0.329895
 O         1.262541        -0.392215         0.157528
 C         0.925593         0.698834         2.249503
 H         1.163615        -0.297542         4.927872
 H         0.702245        -1.973617         1.708293
 H         0.306835        -2.424301         3.444422
 H        -1.806421        -1.063004         3.090858
 H        -1.447169        -0.863359         0.328612
 H        -1.896008         0.562551         1.032161
 H         0.582860         0.716136        -1.352658
 H         1.761893         1.626970        -0.195638
 H         2.027431         0.646769         2.275700
 H         0.693549         1.743775         2.465281
