19
Iteration:   887charge 0 multiplicity 1
 O         0.383788        -0.094202         4.640689
 C         0.238824        -0.412880         3.237413
 C         0.001095        -1.949574         2.819453
 C        -0.994424        -0.767904         2.577726
 C        -0.881315        -0.291981         1.073495
 C         0.487744         0.291080         0.857266
 C         0.808438         1.035704        -0.406066
 O         1.401155        -0.271073        -0.103802
 C         1.008689         0.491038         2.288088
 H         1.341295        -0.047039         4.892436
 H         0.564854        -2.584610         2.054017
 H        -0.259867        -2.553329         3.672451
 H        -2.003325        -0.841793         3.078588
 H        -1.264905        -0.973779         0.356415
 H        -1.595386         0.595776         1.176691
 H        -0.034135         0.995017        -1.079563
 H         1.380626         1.899683        -0.299417
 H         2.158236         0.459278         2.445387
 H         0.638698         1.571914         2.468101
