19
Iteration:  4465charge 0 multiplicity 1
 O         0.413968        -0.044480         4.517746
 C         0.319223        -0.377417         3.161863
 C         0.415716        -1.846147         2.710509
 C        -0.895704        -1.011695         2.562469
 C        -1.042087        -0.345615         1.139035
 C         0.286515         0.391016         0.894646
 C         0.829670         0.922198        -0.324349
 O         1.325232        -0.320077         0.106284
 C         0.826996         0.712065         2.248797
 H         0.667713        -0.862175         4.958763
 H         0.896573        -2.098510         1.754188
 H         0.523760        -2.660581         3.378336
 H        -1.829094        -1.124614         3.148126
 H        -1.488953        -0.991595         0.297341
 H        -1.814637         0.393351         1.243773
 H         0.184644         1.004984        -1.290111
 H         1.530302         1.723770        -0.063910
 H         1.851240         0.942882         2.113654
 H         0.281295         1.599238         2.489989
