19
Iteration:  4600
 O         0.252315         0.104534         4.519987
 C         0.345269        -0.418766         3.187198
 C         0.477006        -1.913368         2.940233
 C        -0.816987        -1.040906         2.507999
 C        -0.942227        -0.438260         1.084854
 C         0.348650         0.238591         0.899446
 C         0.645987         1.176278        -0.202990
 O         1.223607        -0.202825        -0.149260
 C         1.006625         0.570567         2.204802
 H         0.117520        -0.561810         5.225347
 H         1.271565        -2.343324         2.292529
 H         0.169803        -2.710718         3.620294
 H        -1.732334        -1.404347         3.011341
 H        -1.164890        -1.262763         0.429648
 H        -1.853011         0.196444         1.135213
 H        -0.071174         1.209832        -0.971112
 H         1.500863         1.871061        -0.194343
 H         2.078952         0.375052         2.274263
 H         0.803906         1.551351         2.504040
