19
Iteration:  2243
 O         0.323122        -0.088111         4.558372
 C         0.258136        -0.380581         3.232014
 C         0.197625        -1.810721         2.721913
 C        -0.963869        -0.941259         2.471187
 C        -0.963242        -0.154450         1.152290
 C         0.520310         0.314680         0.885077
 C         0.816981         1.015591        -0.408328
 O         1.280869        -0.404989         0.017111
 C         1.010279         0.570018         2.337574
 H         0.767438        -0.717789         5.159350
 H         0.758153        -2.291235         1.867568
 H         0.070306        -2.605468         3.524352
 H        -1.858093        -1.000934         3.059316
 H        -1.164872        -0.822675         0.308050
 H        -1.574656         0.675818         1.326291
 H        -0.086848         1.043967        -1.055088
 H         1.639847         1.838831        -0.474068
 H         2.025237         0.357137         2.433203
 H         0.753283         1.477195         2.666569
