19
Iteration:  3989charge 0 multiplicity 1
 O         0.404248        -0.074991         4.560946
 C         0.332003        -0.392662         3.238480
 C         0.313292        -1.824624         2.828737
 C        -0.910008        -0.999890         2.525546
 C        -0.967001        -0.443917         1.066041
 C         0.393432         0.255702         0.951949
 C         0.788055         1.106528        -0.353842
 O         1.206888        -0.249504        -0.094928
 C         0.960721         0.602916         2.323449
 H        -0.293733         0.531814         4.797661
 H         1.062220        -2.216104         1.978984
 H         0.361976        -2.521381         3.666994
 H        -1.801145        -1.175570         3.102602
 H        -1.076984        -1.120708         0.284849
 H        -1.778739         0.210726         0.941750
 H         0.019170         1.191960        -1.151529
 H         1.471946         1.948458        -0.267239
 H         2.067160         0.469762         2.280394
 H         0.776064         1.644317         2.670887
