19
Iteration:  2848
 O         0.225848        -0.030700         4.592259
 C         0.327070        -0.418830         3.170966
 C         0.116685        -1.927937         2.953855
 C        -0.969318        -0.849726         2.561324
 C        -0.851597        -0.408023         1.060730
 C         0.504465         0.202079         0.875408
 C         0.816642         1.115106        -0.263631
 O         1.249887        -0.196968        -0.222230
 C         1.068814         0.504700         2.261139
 H         1.128067        -0.101885         4.948665
 H         0.633676        -2.356615         2.108314
 H        -0.088442        -2.510227         3.819080
 H        -1.861470        -0.903826         3.162491
 H        -0.980663        -1.292128         0.366468
 H        -1.663416         0.400408         0.901652
 H         0.118429         1.465309        -0.927768
 H         1.477524         1.899919        -0.036406
 H         2.171002         0.287317         2.371004
 H         0.803882         1.570972         2.645705
