19
Iteration:  4280
 O         0.300650         0.062683         4.580825
 C         0.350021        -0.403343         3.219107
 C         0.267216        -1.932845         2.948507
 C        -0.893310        -1.002501         2.578598
 C        -0.868472        -0.537420         1.118571
 C         0.454233         0.237147         0.894512
 C         0.596652         1.152142        -0.387319
 O         1.269757        -0.062430        -0.231446
 C         1.102679         0.498247         2.308186
 H        -0.220945        -0.531616         5.118432
 H         0.915427        -2.097690         2.115181
 H         0.038016        -2.532198         3.884438
 H        -1.795456        -1.085606         3.193977
 H        -1.070965        -1.401943         0.351116
 H        -1.711234         0.124281         0.848760
 H        -0.306553         1.095000        -1.067266
 H         1.333345         1.911388        -0.446059
 H         2.179015         0.212481         2.260575
 H         0.919766         1.601282         2.708406
