19
Iteration:  1333charge 0 multiplicity 1
 O         0.181217         0.060762         4.511734
 C         0.285769        -0.423252         3.282948
 C         0.173415        -1.905883         2.946797
 C        -0.934402        -1.044489         2.356861
 C        -0.948427        -0.160911         1.177259
 C         0.420017         0.306214         0.886058
 C         0.862922         1.132462        -0.239751
 O         1.280406        -0.272783        -0.176542
 C         1.115908         0.259797         2.240117
 H         1.035580         0.457682         4.681610
 H         1.177641        -2.331169         2.502006
 H        -0.130196        -2.560251         3.771207
 H        -1.871974        -1.268350         2.888847
 H        -1.537868        -0.592958         0.306234
 H        -1.434931         0.773670         1.576021
 H         0.092577         1.406774        -0.887589
 H         1.715421         1.860319        -0.211438
 H         2.082592        -0.260599         2.252033
 H         1.281297         1.362443         2.669799
