19
Iteration:  1304charge 0 multiplicity 1
 O         0.196760         0.042045         4.505009
 C         0.361546        -0.458964         3.244963
 C         0.115128        -1.971271         2.913839
 C        -0.967932        -0.907465         2.490508
 C        -0.950959        -0.290781         1.078534
 C         0.442990         0.303899         0.901777
 C         0.877578         1.127957        -0.265222
 O         1.227742        -0.238705        -0.146009
 C         1.169698         0.398036         2.283570
 H         0.963307        -0.162342         5.140350
 H         0.818346        -2.496496         2.145125
 H        -0.199780        -2.546198         3.806153
 H        -1.823577        -0.886935         3.114277
 H        -1.104844        -1.038965         0.385949
 H        -1.658060         0.545788         0.945628
 H        -0.004819         1.441706        -0.952656
 H         1.697155         1.813936        -0.305603
 H         2.169344         0.032789         2.306264
 H         1.274266         1.453930         2.612979
