19
Iteration:  3812charge 0 multiplicity 1
 O         0.367455        -0.054442         4.609980
 C         0.288608        -0.464094         3.268499
 C         0.290422        -1.839720         2.846726
 C        -0.927903        -0.968883         2.524728
 C        -0.956476        -0.387989         1.129704
 C         0.405074         0.340910         0.893512
 C         0.745320         1.052893        -0.365846
 O         1.273710        -0.233726        -0.117625
 C         1.089226         0.603058         2.254364
 H        -0.527913         0.236343         4.782574
 H         0.990840        -2.393830         2.148525
 H        -0.146146        -2.634436         3.675647
 H        -1.942928        -1.195285         3.002225
 H        -1.115965        -1.318599         0.505309
 H        -1.791594         0.343925         1.068232
 H        -0.075546         1.108952        -1.105325
 H         1.541293         1.843341        -0.416964
 H         2.156279         0.286561         2.092499
 H         0.959626         1.726910         2.476245
