19
Iteration:  3113
 O         0.302808         0.036029         4.413021
 C         0.344955        -0.446669         3.154174
 C         0.091508        -1.955535         3.046696
 C        -0.932755        -0.891740         2.509086
 C        -0.980358        -0.350274         1.109237
 C         0.407660         0.276036         0.885441
 C         0.776432         1.205518        -0.199422
 O         1.357677        -0.214707        -0.139181
 C         1.161232         0.390247         2.243707
 H        -0.155259        -0.510565         5.023292
 H         0.766736        -2.590377         2.374239
 H        -0.129332        -2.506395         3.946259
 H        -1.818640        -0.969009         3.089627
 H        -1.211207        -0.978530         0.137539
 H        -1.858646         0.378762         1.267249
 H         0.165079         1.093023        -1.047384
 H         1.419149         2.034337         0.021326
 H         2.154002         0.134866         1.880979
 H         1.191060         1.473799         2.654202
