19
Iteration:  2855charge 0 multiplicity 1
 O         0.160609        -0.045326         4.575683
 C         0.316048        -0.406389         3.250111
 C         0.189617        -1.914990         2.929230
 C        -0.900559        -0.847483         2.645920
 C        -0.928897        -0.391725         1.097130
 C         0.469073         0.263957         0.812816
 C         0.886029         1.112997        -0.313592
 O         1.261359        -0.221185        -0.224464
 C         1.088317         0.504768         2.246148
 H         0.959131        -0.361990         5.085998
 H         0.626891        -2.334580         2.041324
 H        -0.134713        -2.688271         3.660150
 H        -1.946612        -0.859746         3.142167
 H        -1.014892        -1.196163         0.416064
 H        -1.719306         0.329151         0.905781
 H        -0.051678         1.321167        -0.955244
 H         1.583684         1.941694        -0.090310
 H         2.147714         0.267096         2.152455
 H         0.868401         1.420953         2.727720
