19
Iteration:   779
 O         0.156917        -0.248077         4.602209
 C         0.406103        -0.329515         3.186939
 C         0.287881        -1.840432         2.694213
 C        -0.865404        -0.846965         2.487789
 C        -1.038988        -0.069524         1.168198
 C         0.387277         0.348512         0.883140
 C         0.914191         0.877051        -0.351342
 O         1.247745        -0.456573         0.043265
 C         1.018746         0.675422         2.304172
 H         1.017379        -0.318553         4.995893
 H         0.704234        -2.296421         1.737845
 H         0.131292        -2.546766         3.548680
 H        -1.808964        -0.965927         3.173175
 H        -1.418033        -0.739638         0.374019
 H        -1.773754         0.812609         1.229230
 H         0.254884         0.943381        -1.256504
 H         1.783632         1.493262        -0.502313
 H         2.151378         0.843664         2.073621
 H         0.668318         1.688894         2.552769
