19
Iteration:  2959charge 0 multiplicity 1
 O         0.307246        -0.363653         4.544419
 C         0.362233        -0.282515         3.119002
 C         0.349788        -1.683191         2.682720
 C        -0.986894        -0.784367         2.528322
 C        -1.102432        -0.224984         1.112412
 C         0.339804         0.315390         0.928365
 C         0.944983         0.855469        -0.302153
 O         1.287354        -0.406745         0.155144
 C         0.915017         0.724301         2.242283
 H         1.244047        -0.285703         4.883619
 H         0.683311        -1.963105         1.664679
 H         0.283453        -2.495137         3.489063
 H        -1.892563        -1.056459         3.117147
 H        -1.463922        -0.870018         0.212607
 H        -1.957914         0.534398         1.080251
 H         0.640638         0.828218        -1.301508
 H         1.780954         1.594384        -0.293763
 H         2.017949         0.600992         2.352319
 H         0.783054         1.812787         2.604090
