19
Iteration:  1678
 O         0.122525         0.143572         4.570633
 C         0.343448        -0.472151         3.279034
 C         0.184515        -1.882561         2.894511
 C        -0.866023        -0.852602         2.452008
 C        -0.862548        -0.306593         1.057865
 C         0.532763         0.140964         0.893805
 C         0.729603         1.207137        -0.153621
 O         1.185262        -0.216883        -0.286631
 C         1.214756         0.226774         2.300847
 H         0.110255        -0.516178         5.254667
 H         0.788694        -2.469041         2.231105
 H        -0.390835        -2.555009         3.572534
 H        -1.741846        -0.812003         2.992366
 H        -1.181872        -0.926763         0.226372
 H        -1.537392         0.700742         1.299813
 H         0.059273         1.393411        -0.938451
 H         1.648889         1.838473         0.012162
 H         2.294464        -0.075448         2.336351
 H         1.211950         1.294573         2.490686
