19
Iteration:  2938charge 0 multiplicity 1
 O         0.211800        -0.193058         4.636235
 C         0.355976        -0.391400         3.219392
 C         0.303829        -1.859297         2.600405
 C        -0.859153        -0.898005         2.502237
 C        -1.040820        -0.151313         1.201210
 C         0.359459         0.423721         0.853966
 C         0.980968         0.907161        -0.392482
 O         1.232065        -0.481386         0.096353
 C         0.906102         0.748270         2.237509
 H         1.095839        -0.378909         4.938110
 H         1.058409        -1.988950         1.796402
 H         0.212717        -2.690521         3.381456
 H        -1.744982        -1.094683         3.155304
 H        -1.413671        -0.817993         0.328147
 H        -1.879343         0.586814         1.339489
 H         0.444573         1.171305        -1.264433
 H         1.891201         1.554147        -0.403414
 H         2.016424         0.828814         2.241045
 H         0.639564         1.686982         2.829332
