19
Iteration:  2410charge 0 multiplicity 1
 O         0.170764        -0.016617         4.642666
 C         0.273746        -0.458101         3.298372
 C         0.105008        -1.836588         2.822626
 C        -0.896614        -0.857074         2.468908
 C        -0.955924        -0.286985         1.110804
 C         0.539218         0.246743         0.897287
 C         0.805226         1.075778        -0.270874
 O         1.239222        -0.285890        -0.274032
 C         1.191664         0.436943         2.362564
 H         1.054346        -0.221004         4.973702
 H         0.871836        -2.281472         2.132748
 H        -0.102812        -2.618974         3.572651
 H        -1.874807        -0.784059         2.942592
 H        -0.987158        -1.023576         0.265060
 H        -1.690790         0.517229         0.981767
 H        -0.061498         1.438051        -1.029544
 H         1.685659         1.764503        -0.336159
 H         2.252391         0.168531         2.385953
 H         1.044481         1.456473         2.659672
