19
Iteration:  2015charge 0 multiplicity 1
 O         0.005796         0.014173         4.535214
 C         0.344537        -0.368949         3.268085
 C         0.144031        -1.840595         2.942338
 C        -0.912558        -0.843354         2.552883
 C        -0.837126        -0.353899         1.127982
 C         0.580929         0.160164         0.890936
 C         0.801573         1.172886        -0.181088
 O         1.174974        -0.185016        -0.342948
 C         1.281854         0.257815         2.270306
 H         0.746465        -0.294022         5.147357
 H         0.496266        -2.299901         1.963101
 H        -0.155779        -2.473890         3.817332
 H        -1.853276        -1.018311         3.163098
 H        -1.094243        -1.162506         0.365003
 H        -1.552255         0.631349         1.057917
 H        -0.050533         1.490310        -0.633283
 H         1.551973         1.888369        -0.464672
 H         2.222255        -0.183102         2.179519
 H         1.456824         1.375753         2.586814
