19
Iteration:  4152charge 0 multiplicity 1
 O         0.379972        -0.017458         4.589437
 C         0.341328        -0.400512         3.217131
 C         0.305476        -1.880682         2.772477
 C        -0.861058        -1.002600         2.514300
 C        -0.980744        -0.450884         1.156103
 C         0.393801         0.347995         0.886207
 C         0.617621         1.015585        -0.368505
 O         1.328035        -0.235963        -0.059311
 C         1.013734         0.675032         2.343198
 H        -0.512750        -0.414531         4.841334
 H         0.972484        -2.235288         1.923943
 H         0.348232        -2.649384         3.669198
 H        -1.841660        -1.088105         3.091842
 H        -1.109570        -1.131896         0.355816
 H        -1.799772         0.361166         1.031850
 H        -0.019616         0.849585        -1.302327
 H         1.233650         1.903902        -0.410181
 H         2.084096         0.546965         2.183198
 H         0.872485         1.694093         2.611485
