19
Iteration:   820charge 0 multiplicity 1
 O         0.204861         0.069307         4.620788
 C         0.262997        -0.453675         3.186504
 C         0.381371        -1.815196         2.602866
 C        -0.862488        -1.004969         2.392930
 C        -1.083377        -0.079310         1.149894
 C         0.442300         0.428158         1.027677
 C         0.981925         0.884243        -0.323142
 O         1.104550        -0.471074        -0.026828
 C         1.074116         0.532597         2.324127
 H         0.743499        -0.585528         5.127635
 H         1.043698        -1.968616         1.798072
 H         0.300890        -2.556963         3.396961
 H        -1.760725        -1.536074         2.857251
 H        -1.353950        -0.497305         0.231824
 H        -1.786615         0.776270         1.443143
 H         0.173099         1.038611        -1.032008
 H         1.828108         1.496023        -0.364216
 H         2.142737         0.266304         2.532611
 H         0.854435         1.519334         2.898874
