19
Iteration:  4892charge 0 multiplicity 1
 O         0.191512         0.089802         4.585425
 C         0.388587        -0.406599         3.302959
 C         0.545104        -1.835338         2.827712
 C        -0.752930        -1.128128         2.490533
 C        -0.926471        -0.570484         1.173772
 C         0.316883         0.282289         0.897850
 C         0.576939         1.066645        -0.420712
 O         1.267170        -0.114608        -0.142151
 C         0.929257         0.676303         2.307999
 H         0.483549        -0.697811         5.071347
 H         1.223474        -1.997041         2.027660
 H         0.387354        -2.694607         3.509093
 H        -1.581054        -1.672017         2.924180
 H        -0.951311        -1.538897         0.444212
 H        -1.775535         0.111828         0.962811
 H        -0.321687         1.003480        -1.129799
 H         1.229364         1.966582        -0.263030
 H         2.003745         0.739284         2.368209
 H         0.541516         1.599363         2.754670
