19
Iteration:  2846
 O         0.243703        -0.025968         4.592162
 C         0.325985        -0.427278         3.163472
 C         0.095900        -1.922261         2.951349
 C        -0.977389        -0.855063         2.524839
 C        -0.839383        -0.417514         1.054820
 C         0.505124         0.195615         0.904741
 C         0.792758         1.129547        -0.242569
 O         1.257618        -0.202269        -0.227820
 C         1.067674         0.502855         2.269112
 H         1.188560        -0.036830         4.922399
 H         0.628480        -2.371427         2.162938
 H        -0.059478        -2.460947         3.879682
 H        -1.905020        -0.899844         3.194834
 H        -0.991565        -1.254429         0.388123
 H        -1.636251         0.380392         0.881713
 H         0.112026         1.484968        -0.998389
 H         1.501812         1.868928        -0.030891
 H         2.164670         0.336626         2.417925
 H         0.830794         1.557498         2.559930
