19
Iteration:   115charge 0 multiplicity 1
 O         0.082609        -0.106732         4.640717
 C         0.263425        -0.319254         3.245122
 C         0.383306        -1.695329         2.723659
 C        -0.850240        -0.884820         2.471802
 C        -1.018056        -0.113916         1.208465
 C         0.470543         0.292090         0.948837
 C         0.954113         0.936738        -0.337530
 O         1.116688        -0.519105        -0.215524
 C         1.121982         0.531398         2.314184
 H         0.662076        -0.726163         5.109059
 H         0.983642        -1.982591         1.878785
 H         0.174271        -2.597481         3.357922
 H        -1.730570        -1.230742         2.959218
 H        -1.399911        -0.739404         0.409779
 H        -1.611821         0.863044         1.494775
 H         0.164047         1.210417        -1.130007
 H         1.901645         1.634647        -0.181910
 H         2.231944         0.346039         2.503536
 H         1.029718         1.691730         2.621620
