19
Iteration:  3388
 O         0.193795        -0.217008         4.529852
 C         0.367473        -0.434205         3.146607
 C         0.293849        -1.849265         2.713414
 C        -0.927079        -0.759698         2.549054
 C        -1.033131        -0.185219         1.114483
 C         0.388121         0.392363         0.908789
 C         0.933092         0.928837        -0.335864
 O         1.166324        -0.485234        -0.012073
 C         1.095480         0.725479         2.391048
 H         0.936241         0.258043         4.917904
 H         0.849361        -2.214240         1.839112
 H         0.087265        -2.625410         3.368970
 H        -1.664102        -0.879152         3.388609
 H        -1.055044        -1.070540         0.413985
 H        -1.861823         0.429904         0.912728
 H         0.180416         1.164723        -1.219673
 H         1.875068         1.486400        -0.240438
 H         2.186134         0.596522         2.366243
 H         0.788584         1.685410         2.842441
