19
Iteration:   712charge 0 multiplicity 1
 O         0.435556        -0.014825         4.497961
 C         0.320233        -0.466126         3.221600
 C         0.077078        -1.896910         2.871747
 C        -1.063286        -0.927134         2.477000
 C        -1.039287        -0.180980         1.121800
 C         0.413789         0.292594         0.906280
 C         0.924649         0.993219        -0.285289
 O         1.408262        -0.309355        -0.048383
 C         0.976044         0.524708         2.229550
 H         0.735567        -0.713962         5.163621
 H         0.531788        -2.423626         2.087620
 H        -0.160496        -2.446619         3.801383
 H        -2.054728        -0.912204         2.978924
 H        -1.342210        -0.743600         0.280429
 H        -1.776977         0.692488         1.188011
 H         0.386620         1.236850        -1.193348
 H         1.640737         1.758255        -0.148248
 H         2.095633         0.549796         2.392202
 H         0.648570         1.540026         2.464635
