19
Iteration:  4798
 O         0.309027        -0.050607         4.566763
 C         0.395059        -0.365039         3.147858
 C         0.589496        -1.730425         2.759378
 C        -0.812976        -1.121378         2.435307
 C        -1.017460        -0.436201         1.089976
 C         0.338150         0.327908         0.984489
 C         0.607920         0.946564        -0.313161
 O         1.329970        -0.288741         0.070137
 C         0.800457         0.814601         2.249962
 H         0.326104        -0.980710         4.935147
 H         1.186917        -2.019158         1.884214
 H         0.679221        -2.532999         3.559033
 H        -1.717984        -1.334480         3.011876
 H        -1.134014        -1.079864         0.287298
 H        -1.916057         0.191390         1.204306
 H        -0.247103         0.861108        -1.044498
 H         1.159912         1.825814        -0.446962
 H         1.917238         0.973008         2.374881
 H         0.228830         1.722288         2.527210
