19
Iteration:  4583charge 0 multiplicity 1
 O         0.178336         0.073682         4.475516
 C         0.332093        -0.431106         3.202803
 C         0.503699        -1.829000         2.954227
 C        -0.863309        -1.087905         2.444926
 C        -0.961027        -0.406947         1.091538
 C         0.423847         0.278080         0.969567
 C         0.638475         1.116317        -0.247230
 O         1.205677        -0.246533        -0.174700
 C         1.033289         0.485762         2.330959
 H         1.047303        -0.228985         4.921639
 H         1.170079        -2.275621         2.133664
 H         0.673424        -2.519187         3.805660
 H        -1.698157        -1.115165         3.139802
 H        -1.170347        -0.960610         0.118230
 H        -1.740296         0.407553         1.073458
 H        -0.202721         1.362239        -1.035751
 H         1.214207         2.035004        -0.069863
 H         2.137262         0.439668         2.162488
 H         0.640016         1.542493         2.695170
