19
Iteration:  1284
 O         0.195048        -0.027462         4.599932
 C         0.342009        -0.401207         3.205093
 C         0.088228        -1.865871         2.843523
 C        -0.993033        -0.740750         2.564458
 C        -0.865486        -0.417304         1.141760
 C         0.517066         0.265384         0.900819
 C         0.855657         1.105928        -0.227843
 O         1.231477        -0.281609        -0.252533
 C         1.156669         0.468426         2.267185
 H         0.721855        -0.818991         4.890376
 H         0.311551        -2.227479         1.901086
 H        -0.053255        -2.665511         3.548929
 H        -1.830229        -0.686407         3.192974
 H        -0.792537        -1.327056         0.526360
 H        -1.753158         0.168394         0.883550
 H         0.144411         1.368468        -1.110755
 H         1.519066         1.899876         0.023324
 H         2.274504         0.343886         2.241323
 H         0.924731         1.345908         2.725089
