19
Iteration:  4441
 O         0.289591        -0.190869         4.559410
 C         0.380239        -0.285178         3.159269
 C         0.434622        -1.755819         2.669741
 C        -0.859411        -1.049736         2.449687
 C        -1.075380        -0.286814         1.159415
 C         0.395995         0.352114         0.935890
 C         0.758648         0.928097        -0.356719
 O         1.228355        -0.421899         0.092071
 C         0.912390         0.806542         2.325986
 H         1.228755        -0.007230         4.824115
 H         1.186809        -2.256358         2.029837
 H         0.269608        -2.398048         3.544424
 H        -1.707195        -1.412898         3.060611
 H        -1.315866        -0.908781         0.248108
 H        -1.893101         0.399525         1.206120
 H         0.022932         1.008434        -1.252805
 H         1.592630         1.614189        -0.195641
 H         1.994588         0.873164         2.227699
 H         0.471791         1.799326         2.494189
