19
Iteration:  1753charge 0 multiplicity 1
 O         0.421913        -0.000356         4.534766
 C         0.293972        -0.443701         3.183556
 C         0.031409        -1.878703         2.902818
 C        -1.012165        -0.907343         2.417607
 C        -0.915378        -0.293716         1.034894
 C         0.418821         0.335086         0.926163
 C         0.802727         1.022016        -0.281107
 O         1.408582        -0.244699        -0.063558
 C         1.032326         0.467666         2.312575
 H         0.582387        -0.807552         5.073133
 H         0.487533        -2.435745         2.101986
 H        -0.297136        -2.451159         3.836522
 H        -1.947482        -0.932615         2.905529
 H        -1.154390        -1.001944         0.279578
 H        -1.592277         0.490421         1.079337
 H         0.029420         1.122455        -1.016325
 H         1.421441         1.978196        -0.141474
 H         2.089934         0.343139         2.259179
 H         0.790213         1.429835         2.844753
