19
Iteration:   557
 O         0.427269        -0.188813         4.731989
 C         0.227153        -0.379479         3.254741
 C         0.135308        -1.712966         2.680989
 C        -1.060988        -0.739129         2.509265
 C        -1.002538        -0.367638         1.053872
 C         0.529158         0.253830         0.870993
 C         0.896311         0.974451        -0.288492
 O         1.305549        -0.367352        -0.062062
 C         0.952335         0.562742         2.286197
 H         1.002857         0.564840         4.723942
 H         0.719183        -1.911727         1.771257
 H         0.282729        -2.551153         3.433726
 H        -1.940974        -1.208282         2.978367
 H        -1.184290        -1.080029         0.298109
 H        -1.791418         0.450050         0.970527
 H         0.104548         1.259976        -0.947342
 H         1.721544         1.734328        -0.464540
 H         2.022771         0.445218         2.217049
 H         0.724947         1.508508         2.623239
