19
Iteration:  2654
 O         0.312805         0.063414         4.599672
 C         0.246333        -0.471917         3.298706
 C        -0.000479        -1.921000         2.914455
 C        -0.980078        -0.833687         2.540834
 C        -0.803811        -0.416223         1.054450
 C         0.518212         0.258277         0.873485
 C         0.722547         1.171762        -0.251149
 O         1.302915        -0.206321        -0.340787
 C         1.142883         0.403430         2.359267
 H         0.751310        -0.635278         5.108067
 H         0.503013        -2.409192         2.095696
 H        -0.359421        -2.488253         3.828023
 H        -1.957369        -0.803738         3.134467
 H        -0.653738        -1.272205         0.388503
 H        -1.579214         0.105638         0.635491
 H        -0.036254         1.290286        -1.039777
 H         1.651590         1.899018        -0.207767
 H         2.204835         0.306670         2.500107
 H         0.983640         1.439315         2.651788
