19
Iteration:   769charge 0 multiplicity 1
 O         0.222897        -0.299186         4.564856
 C         0.328044        -0.375356         3.227566
 C         0.238222        -1.791827         2.677621
 C        -0.878451        -0.765035         2.559761
 C        -1.019885        -0.185412         1.160772
 C         0.395362         0.399543         0.930786
 C         0.920293         0.873206        -0.396562
 O         1.278258        -0.467974         0.012489
 C         0.996053         0.768793         2.273474
 H         1.023697        -0.243002         5.054078
 H         0.772752        -2.189829         1.740720
 H        -0.054253        -2.578474         3.405665
 H        -1.854656        -0.686258         3.138595
 H        -1.247798        -0.983132         0.410815
 H        -1.826644         0.564614         1.136695
 H         0.198958         0.974989        -1.258908
 H         1.775295         1.538343        -0.288804
 H         2.084474         0.468284         2.305625
 H         0.857961         1.738051         2.644747
