19
Iteration:  2029
 O         0.005863         0.018034         4.540148
 C         0.352893        -0.462105         3.210958
 C         0.136642        -1.888086         2.947427
 C        -0.901515        -0.822930         2.490153
 C        -0.913284        -0.292776         1.118369
 C         0.530336         0.224936         0.911084
 C         0.724187         1.158991        -0.157558
 O         1.229745        -0.245896        -0.315131
 C         1.370091         0.301585         2.256375
 H         0.720713         0.069510         5.159295
 H         0.897049        -2.341229         2.326304
 H        -0.047234        -2.529914         3.821684
 H        -1.790958        -0.650085         3.055414
 H        -1.143535        -1.030786         0.307859
 H        -1.642686         0.601660         1.089954
 H        -0.118990         1.385345        -0.887468
 H         1.440056         1.834842         0.211266
 H         2.353532        -0.218199         2.225874
 H         1.467257         1.314408         2.479780
