19
Iteration:  2267
 O         0.291596        -0.047749         4.552788
 C         0.368331        -0.442956         3.208720
 C         0.031833        -1.966053         2.742054
 C        -0.932548        -0.805395         2.518300
 C        -1.002242        -0.259941         1.080940
 C         0.429854         0.348343         0.963391
 C         0.736684         0.959642        -0.329752
 O         1.450188        -0.263228        -0.084995
 C         1.092735         0.556015         2.346863
 H         0.750729        -0.578939         5.179351
 H         0.742679        -2.517309         2.095729
 H        -0.138543        -2.584319         3.624645
 H        -1.773872        -0.683000         3.296597
 H        -1.108201        -0.977016         0.235487
 H        -1.715046         0.529899         1.208946
 H        -0.098958         0.742484        -1.071406
 H         1.319867         1.897002        -0.536667
 H         2.085771         0.374412         2.074247
 H         0.884257         1.525436         2.764202
