19
Iteration:   986
 O         0.149260         0.093163         4.524623
 C         0.243673        -0.423318         3.265966
 C         0.240122        -1.879614         2.905878
 C        -0.945299        -0.990424         2.402737
 C        -0.857357        -0.167627         1.145539
 C         0.565834         0.263518         0.914508
 C         0.816449         1.111022        -0.229171
 O         1.116054        -0.343470        -0.206978
 C         1.208373         0.361084         2.295507
 H         0.429012        -0.665233         5.138991
 H         0.992212        -2.236541         2.118408
 H        -0.004535        -2.656729         3.755259
 H        -1.881834        -1.197409         2.789640
 H        -1.312962        -0.691362         0.363147
 H        -1.397856         0.842429         1.334558
 H         0.092057         1.562035        -0.868030
 H         1.731496         1.633688        -0.399401
 H         2.343617         0.212207         2.203469
 H         1.000793         1.333068         2.787391
