19
Iteration:  2832
 O         0.364466        -0.005385         4.530965
 C         0.265838        -0.409118         3.274042
 C         0.017215        -1.851475         2.927270
 C        -0.974598        -0.936636         2.452292
 C        -0.910038        -0.475601         1.028230
 C         0.519808         0.245517         0.877609
 C         0.720077         1.180157        -0.097376
 O         1.332224        -0.232516        -0.230349
 C         1.120647         0.458599         2.321652
 H         1.247752         0.297266         4.664266
 H         0.601548        -2.596348         2.329996
 H        -0.314679        -2.318351         3.906807
 H        -2.067644        -0.729234         2.727906
 H        -0.877232        -1.225148         0.266057
 H        -1.669702         0.218065         0.785917
 H        -0.171027         1.204331        -0.871432
 H         1.540706         2.008431        -0.134306
 H         2.200190         0.418784         2.214658
 H         0.765833         1.414498         2.617762
