19
Iteration:  3643charge 0 multiplicity 1
 O         0.297304        -0.111766         4.600701
 C         0.295033        -0.395671         3.161633
 C         0.241388        -1.855103         2.826274
 C        -0.908666        -0.958133         2.456687
 C        -0.931844        -0.339498         1.091403
 C         0.422562         0.353601         0.922207
 C         0.690877         1.051037        -0.341067
 O         1.288948        -0.298054         0.028272
 C         1.093804         0.526308         2.263798
 H         0.441604         0.831257         4.614027
 H         0.973562        -2.323458         2.190327
 H        -0.167922        -2.400421         3.689509
 H        -1.832509        -1.032688         3.092088
 H        -1.115133        -0.953876         0.230263
 H        -1.639944         0.487478         1.069916
 H        -0.042791         1.019289        -1.216155
 H         1.648410         1.674706        -0.358608
 H         2.181143         0.560879         2.160987
 H         0.843976         1.519254         2.622737
