19
Iteration:  1491
 O         0.369549        -0.181775         4.695575
 C         0.280243        -0.368626         3.256177
 C         0.335587        -1.714569         2.682513
 C        -0.909199        -0.827276         2.438958
 C        -1.064037        -0.137120         1.053458
 C         0.373455         0.398910         0.869417
 C         1.048958         0.858161        -0.323470
 O         1.146574        -0.462066         0.013929
 C         0.928245         0.601134         2.274959
 H        -0.137968        -0.881367         5.111121
 H         1.042545        -1.844345         1.900138
 H         0.292982        -2.498133         3.419305
 H        -1.857601        -1.427102         2.719017
 H        -1.334636        -0.809764         0.316631
 H        -1.760494         0.654673         1.310172
 H         0.452523         1.158519        -1.179298
 H         1.857795         1.514704        -0.171808
 H         2.063853         0.536699         2.141026
 H         0.710969         1.592267         2.786753
