19
Iteration:  2452charge 0 multiplicity 1
 O         0.361763        -0.113673         4.572580
 C         0.336069        -0.361524         3.180183
 C         0.144006        -1.835849         2.810981
 C        -0.940341        -0.861207         2.494076
 C        -1.114930        -0.315399         1.048364
 C         0.335263         0.369414         0.868277
 C         0.999804         1.044053        -0.230524
 O         1.332294        -0.362971        -0.042675
 C         0.994721         0.561047         2.274230
 H         1.042823        -0.570480         5.041540
 H         0.712459        -2.308914         1.929539
 H        -0.212990        -2.564410         3.600046
 H        -1.804407        -0.818422         3.193287
 H        -1.275316        -1.053912         0.263972
 H        -1.903341         0.374165         1.051338
 H         0.355929         1.151687        -1.186975
 H         1.752928         1.768164         0.166640
 H         2.072913         0.365671         2.139826
 H         0.608453         1.501925         2.698036
