19
Iteration:  3086charge 0 multiplicity 1
 O         0.290971         0.127635         4.577274
 C         0.229530        -0.404814         3.262197
 C         0.199746        -1.970336         2.912038
 C        -0.894477        -0.996166         2.428429
 C        -0.923329        -0.264295         1.097154
 C         0.487977         0.250807         0.881239
 C         0.836576         1.176806        -0.239735
 O         1.209664        -0.267344        -0.254329
 C         1.103948         0.366767         2.337484
 H        -0.075275        -0.395923         5.284246
 H         0.815678        -2.420520         2.146158
 H         0.004038        -2.710471         3.731795
 H        -1.881674        -1.099793         2.956741
 H        -1.147577        -0.848259         0.256501
 H        -1.673609         0.439740         1.320306
 H         0.102511         1.387626        -1.064114
 H         1.736540         1.871976        -0.084335
 H         2.173641         0.142923         2.275121
 H         0.964820         1.394003         2.580907
