19
Iteration:  3859
 O         0.280464         0.002050         4.554258
 C         0.303976        -0.355161         3.156002
 C         0.154503        -1.932036         3.011008
 C        -0.900466        -1.006028         2.582987
 C        -0.965079        -0.515976         1.114722
 C         0.438674         0.179402         0.826922
 C         0.699237         1.190666        -0.225774
 O         1.317129        -0.113133        -0.241016
 C         1.113715         0.469937         2.249824
 H         1.025461         0.637921         4.787018
 H         0.879443        -2.136122         2.183874
 H        -0.007852        -2.676205         3.858689
 H        -1.798115        -1.072702         3.132022
 H        -1.055683        -1.455134         0.410869
 H        -1.733750         0.313698         0.965571
 H         0.088829         1.346232        -1.081823
 H         1.328935         2.029984         0.074789
 H         2.214320         0.254342         2.288897
 H         0.866998         1.589767         2.497924
