19
Iteration:  3206
 O         0.189829         0.049013         4.491702
 C         0.348378        -0.468826         3.238829
 C         0.148954        -2.022541         2.890955
 C        -0.893787        -0.873262         2.568464
 C        -0.935501        -0.332906         1.098931
 C         0.401193         0.332099         0.939898
 C         0.839338         1.141101        -0.298299
 O         1.281589        -0.196387        -0.137018
 C         1.087498         0.405182         2.227488
 H         0.834118        -0.086456         5.238701
 H         0.650573        -2.549995         2.036085
 H         0.140951        -2.679644         3.767121
 H        -1.811758        -0.839539         3.270204
 H        -1.270768        -1.156756         0.454982
 H        -1.691801         0.521672         1.101255
 H         0.220936         1.057555        -1.199565
 H         1.691460         1.894754        -0.287691
 H         2.138306         0.071257         1.989711
 H         1.103977         1.387068         2.678166
