19
Iteration:   153charge 0 multiplicity 1
 O         0.134348        -0.122706         4.640093
 C         0.315015        -0.387019         3.218732
 C         0.315995        -1.842111         2.842869
 C        -0.880150        -0.875386         2.485587
 C        -1.016889        -0.150536         1.178341
 C         0.414329         0.423304         0.874926
 C         1.024897         0.965385        -0.366446
 O         1.127031        -0.453418        -0.165408
 C         1.091267         0.535274         2.312052
 H         0.969640         0.118944         5.024940
 H         0.865270        -2.327900         2.011051
 H        -0.039556        -2.586652         3.578717
 H        -1.820317        -1.126788         3.053714
 H        -1.258670        -0.808819         0.251573
 H        -1.879052         0.546121         1.184992
 H         0.336294         1.368763        -1.154083
 H         1.954035         1.463243        -0.220045
 H         2.155916         0.434382         2.286639
 H         0.858259         1.528505         2.558996
