19
Iteration:  2649
 O         0.282954        -0.005368         4.615534
 C         0.315675        -0.464534         3.321326
 C        -0.010210        -1.858941         2.925152
 C        -0.986471        -0.830800         2.527847
 C        -0.831561        -0.449489         1.034740
 C         0.528900         0.261936         0.915496
 C         0.752008         1.145000        -0.272357
 O         1.284486        -0.211560        -0.341571
 C         1.144231         0.474367         2.331879
 H         0.823177        -0.604002         5.162316
 H         0.560049        -2.415448         2.156082
 H        -0.364672        -2.492996         3.683043
 H        -1.905643        -0.657796         3.130673
 H        -0.694419        -1.348900         0.390137
 H        -1.621864         0.203787         0.407257
 H        -0.085240         1.277562        -0.987512
 H         1.529998         1.898990        -0.307977
 H         2.247453         0.194758         2.506104
 H         0.987949         1.515827         2.786211
