19
Iteration:  4091charge 0 multiplicity 1
 O         0.481460        -0.061020         4.531555
 C         0.265534        -0.321246         3.204980
 C         0.494874        -1.786287         2.695730
 C        -0.828879        -1.054013         2.445014
 C        -0.998552        -0.303138         1.082848
 C         0.311663         0.408675         0.957067
 C         0.869794         0.986632        -0.335643
 O         1.127479        -0.430808         0.138355
 C         0.763812         0.704277         2.263040
 H         0.086745        -0.812881         5.061162
 H         1.224677        -1.891485         1.998674
 H         0.430336        -2.559095         3.437329
 H        -1.701663        -1.508102         2.974623
 H        -1.186898        -1.080618         0.288064
 H        -1.821019         0.392850         1.174610
 H         0.244619         1.044581        -1.204953
 H         1.786624         1.608436        -0.457336
 H         1.860169         0.740522         2.411728
 H         0.303504         1.742815         2.570479
