19
Iteration:  3181charge 0 multiplicity 1
 O         0.321095        -0.042395         4.589911
 C         0.325400        -0.345012         3.278481
 C         0.078580        -1.813890         2.988957
 C        -0.980176        -0.901891         2.447048
 C        -0.943882        -0.415985         1.053695
 C         0.468949         0.212139         0.887708
 C         0.779508         1.182256        -0.199671
 O         1.304529        -0.220770        -0.254847
 C         1.170128         0.436228         2.219810
 H         0.362279        -0.740290         5.259470
 H         0.660565        -2.374411         2.342765
 H        -0.139320        -2.455799         3.836035
 H        -1.997207        -1.056981         2.860354
 H        -1.144531        -1.307392         0.350525
 H        -1.761803         0.397083         0.936385
 H        -0.030096         1.322323        -0.910191
 H         1.605649         1.820156        -0.185263
 H         2.260240         0.278249         2.293323
 H         0.905035         1.513496         2.460668
