19
Iteration:  3716
 O         0.393243        -0.068991         4.538159
 C         0.335898        -0.408480         3.138081
 C         0.415072        -1.774601         2.623685
 C        -0.866784        -0.981491         2.359015
 C        -1.101799        -0.212577         1.203667
 C         0.258078         0.415686         0.925324
 C         0.914694         0.856788        -0.279659
 O         1.287833        -0.467230         0.166375
 C         0.826177         0.750308         2.249445
 H         0.570657        -0.915935         4.979516
 H         1.099290        -2.093143         1.783354
 H         0.277338        -2.521333         3.479046
 H        -1.758016        -0.993682         3.033221
 H        -1.378969        -0.872119         0.260763
 H        -1.835592         0.624723         1.389788
 H         0.304333         0.732905        -1.123233
 H         1.562535         1.744223        -0.038591
 H         1.940666         0.842809         2.322291
 H         0.454579         1.705335         2.732503
