19
Iteration:  3754charge 0 multiplicity 1
 O         0.380730        -0.045841         4.577351
 C         0.322712        -0.392697         3.228390
 C         0.422353        -1.825138         2.658785
 C        -0.835796        -1.042233         2.385062
 C        -1.002628        -0.190512         1.126140
 C         0.338385         0.469463         0.945797
 C         0.834252         0.876405        -0.339917
 O         1.163434        -0.451740         0.046137
 C         0.925375         0.687844         2.379424
 H        -0.296601        -0.514803         5.164215
 H         1.083301        -1.922483         1.789207
 H         0.419380        -2.573258         3.396523
 H        -1.784841        -1.195712         2.900735
 H        -1.210416        -0.842587         0.340430
 H        -1.898137         0.415493         1.194825
 H         0.156736         1.063578        -1.288719
 H         1.695085         1.570070        -0.389361
 H         2.005382         0.702206         2.429558
 H         0.579130         1.682681         2.612016
