19
Iteration:  2588
 O         0.278716         0.078195         4.568575
 C         0.305957        -0.407270         3.234016
 C         0.215975        -1.948852         2.698356
 C        -0.936439        -0.991604         2.448612
 C        -1.028187        -0.188068         1.139076
 C         0.413721         0.350647         0.953321
 C         0.858662         1.012879        -0.290195
 O         1.317837        -0.353448        -0.069004
 C         1.029173         0.453445         2.306088
 H         1.113247        -0.140526         5.062222
 H         0.870959        -2.180068         1.839268
 H        -0.042083        -2.725415         3.419302
 H        -1.947154        -1.130317         3.076236
 H        -1.438314        -0.774976         0.304282
 H        -1.608818         0.694106         1.240127
 H         0.214527         0.984388        -1.160724
 H         1.700591         1.821660        -0.149158
 H         2.070396         0.487239         2.510537
 H         0.721307         1.418152         2.716076
