19
Iteration:  2376
 O         0.069249         0.030817         4.471951
 C         0.331257        -0.439218         3.208729
 C         0.116363        -1.962228         2.973724
 C        -0.893058        -0.967794         2.466064
 C        -0.942832        -0.207594         1.203021
 C         0.513484         0.288902         0.914160
 C         0.746604         1.147978        -0.372625
 O         1.291065        -0.201229        -0.136514
 C         1.268843         0.301698         2.271376
 H         0.880573        -0.149495         5.021761
 H         0.898129        -2.397778         2.196853
 H        -0.099506        -2.401496         3.958637
 H        -1.814334        -0.758479         3.150746
 H        -1.314192        -0.661292         0.236507
 H        -1.655033         0.592493         1.449812
 H        -0.200804         1.175508        -1.083106
 H         1.605945         1.902416        -0.363056
 H         2.188816        -0.258429         2.017282
 H         1.557037         1.169783         2.790706
