19
Iteration:  3145charge 0 multiplicity 1
 O         0.422201         0.077759         4.559537
 C         0.234833        -0.485895         3.313115
 C         0.024205        -1.844297         2.873874
 C        -0.998389        -0.824734         2.529058
 C        -0.896331        -0.479459         1.038809
 C         0.498760         0.258857         0.926341
 C         0.763489         1.161383        -0.224513
 O         1.304218        -0.187027        -0.263058
 C         1.143773         0.378058         2.350591
 H         0.098027        -0.598210         5.216011
 H         0.700255        -2.136069         2.000099
 H        -0.260446        -2.555715         3.632220
 H        -1.962288        -1.011429         2.849633
 H        -0.857366        -1.448833         0.442924
 H        -1.783414        -0.018371         0.635141
 H        -0.021052         1.265516        -0.981039
 H         1.490295         1.986629        -0.291381
 H         2.214595         0.258425         2.196684
 H         1.029505         1.474897         2.592290
