19
Iteration:  4510charge 0 multiplicity 1
 O         0.491770        -0.118582         4.618521
 C         0.248461        -0.328342         3.127965
 C         0.342038        -1.816360         2.791915
 C        -0.898222        -1.077060         2.469051
 C        -0.939110        -0.364950         1.102038
 C         0.380856         0.286896         0.923809
 C         0.664229         1.019814        -0.277448
 O         1.279876        -0.326832        -0.024813
 C         0.923146         0.759120         2.263743
 H        -0.366945         0.214459         4.951437
 H         0.938035        -2.268448         2.062213
 H         0.529105        -2.448047         3.643711
 H        -1.818138        -1.152307         3.032605
 H        -0.919076        -0.957294         0.114776
 H        -1.755520         0.292122         0.934003
 H        -0.051263         0.965363        -1.116163
 H         1.412699         1.864514        -0.208004
 H         1.933489         0.547033         2.480097
 H         0.610987         1.739181         2.520232
