19
Iteration:  1964charge 0 multiplicity 1
 O         0.395512         0.052703         4.501462
 C         0.265202        -0.429732         3.150258
 C         0.000606        -1.946932         2.992524
 C        -1.024632        -0.897190         2.462764
 C        -0.976311        -0.392030         1.043272
 C         0.454789         0.259716         0.838514
 C         0.874010         1.171887        -0.180575
 O         1.350930        -0.185129        -0.080844
 C         1.071994         0.413117         2.212048
 H         0.782821        -0.736026         4.951193
 H         0.724106        -2.511316         2.385520
 H        -0.194360        -2.478478         3.966065
 H        -1.920048        -0.778047         3.067078
 H        -1.011665        -1.269614         0.426446
 H        -1.666284         0.363317         1.041044
 H         0.144832         1.385839        -1.121419
 H         1.521521         2.008927         0.134166
 H         2.213383         0.084631         2.202708
 H         0.983351         1.337351         2.706720
