19
Iteration:   161
 O         0.166784        -0.062981         4.537687
 C         0.331003        -0.467101         3.211463
 C         0.206295        -1.853442         2.764246
 C        -0.892793        -0.907756         2.524720
 C        -0.981245        -0.160315         1.195172
 C         0.386683         0.379229         0.921717
 C         0.984156         0.978969        -0.357948
 O         1.176960        -0.421363        -0.117666
 C         1.096002         0.555817         2.335066
 H         1.028382         0.146681         4.875894
 H         0.946377        -2.266174         2.100906
 H        -0.004541        -2.455474         3.585246
 H        -1.836435        -1.038905         3.063161
 H        -1.198847        -0.955319         0.409477
 H        -1.825209         0.639516         1.298506
 H         0.329602         1.229529        -1.319497
 H         1.942257         1.451456        -0.235494
 H         2.194392         0.480309         2.334944
 H         0.859528         1.631393         2.754619
