19
Iteration:  3806charge 0 multiplicity 1
 O         0.335201        -0.086718         4.632301
 C         0.325973        -0.395116         3.220482
 C         0.309826        -1.848262         2.826597
 C        -0.940939        -0.953786         2.575707
 C        -0.969111        -0.381512         1.182374
 C         0.389584         0.335589         0.895072
 C         0.783516         1.045471        -0.362774
 O         1.303585        -0.259612        -0.153024
 C         1.045130         0.596394         2.226703
 H        -0.643385        -0.003402         4.836470
 H         0.888752        -2.229153         2.023854
 H        -0.008625        -2.345953         3.662208
 H        -1.790881        -1.389085         3.044678
 H        -1.318433        -1.160435         0.466814
 H        -1.712308         0.421251         1.010577
 H        -0.054147         0.995621        -1.062089
 H         1.468501         1.882765        -0.388997
 H         2.109611         0.373059         2.174761
 H         1.030938         1.636460         2.519667
