19
Iteration:  2565charge 0 multiplicity 1
 O         0.253111        -0.007225         4.510026
 C         0.279367        -0.445190         3.228332
 C         0.346087        -1.905566         2.708532
 C        -0.874402        -0.948863         2.390719
 C        -0.992737        -0.130224         1.139617
 C         0.400858         0.342985         0.988445
 C         0.948816         0.993346        -0.243967
 O         1.136389        -0.467412         0.018697
 C         0.972368         0.633784         2.259491
 H         1.072074        -0.336965         4.938150
 H         1.134020        -2.101432         1.962135
 H         0.121618        -2.612718         3.444466
 H        -1.936584        -1.363541         2.691597
 H        -1.470402        -0.593040         0.279153
 H        -1.502677         0.749621         1.401842
 H         0.174660         1.243368        -1.025166
 H         2.050250         1.370949        -0.226254
 H         2.040296         0.660665         2.378037
 H         0.618704         1.514799         2.767208
