19
Iteration:  4991
 O         0.363107         0.040111         4.564387
 C         0.243781        -0.338525         3.235532
 C         0.619136        -1.798091         2.904290
 C        -0.824132        -1.248769         2.495487
 C        -0.894870        -0.630078         1.034437
 C         0.323849         0.304853         0.902140
 C         0.501214         1.117436        -0.318427
 O         1.310397        -0.157424        -0.082575
 C         0.842387         0.742950         2.285894
 H        -0.149299        -0.575994         5.114192
 H         1.253680        -2.103281         2.061533
 H         0.864771        -2.409437         3.731005
 H        -1.679273        -1.551741         3.033642
 H        -0.804002        -1.403945         0.135290
 H        -1.839565        -0.078842         1.072577
 H        -0.251181         1.154068        -1.258342
 H         1.194801         1.946120        -0.171968
 H         1.901303         0.808024         2.236585
 H         0.507949         1.728015         2.588805
