19
Iteration:  3556
 O         0.200233         0.150527         4.516568
 C         0.329000        -0.429184         3.208371
 C         0.040752        -1.956390         2.999418
 C        -0.913654        -0.967805         2.481672
 C        -0.843370        -0.479920         1.110086
 C         0.456612         0.243205         0.922148
 C         0.756006         1.212673        -0.238170
 O         1.225695        -0.153464        -0.214899
 C         1.236834         0.367834         2.256904
 H         1.004585        -0.011261         5.020989
 H         0.724464        -2.565767         2.344398
 H        -0.391051        -2.593172         3.720669
 H        -1.850755        -0.724481         3.059208
 H        -0.919332        -1.243069         0.359527
 H        -1.675651         0.226958         0.921324
 H         0.028890         1.225555        -1.041976
 H         1.460357         2.061978        -0.165884
 H         2.211416        -0.122368         2.036992
 H         1.347377         1.342057         2.751496
