19
Iteration:   635
 O         0.252900         0.029051         4.624799
 C         0.305002        -0.381436         3.286760
 C         0.170514        -1.855400         2.822762
 C        -0.986909        -0.926522         2.492248
 C        -0.931715        -0.189044         1.131782
 C         0.526873         0.243716         0.943124
 C         0.819878         1.051347        -0.281161
 O         1.245480        -0.309316        -0.270205
 C         1.173607         0.360691         2.283986
 H        -0.681905        -0.036676         4.905262
 H         0.894400        -2.300392         2.118959
 H        -0.077504        -2.600103         3.513222
 H        -1.903256        -0.971051         3.065657
 H        -1.187499        -0.850814         0.381127
 H        -1.488247         0.783638         1.084370
 H         0.020961         1.167528        -0.939739
 H         1.568941         1.843120        -0.210015
 H         2.197574        -0.036972         2.241706
 H         1.267210         1.271266         2.732128
