19
Iteration:   749charge 0 multiplicity 1
 O         0.376377        -0.233486         4.634757
 C         0.266711        -0.323840         3.229193
 C         0.118190        -1.714564         2.650472
 C        -1.046572        -0.805475         2.566294
 C        -0.977343        -0.249986         1.039382
 C         0.427226         0.322995         0.939900
 C         0.892028         0.946223        -0.380154
 O         1.290625        -0.392057         0.051544
 C         1.048832         0.612140         2.327724
 H         1.317519        -0.392831         4.893981
 H         0.496998        -2.140341         1.644364
 H         0.212075        -2.461576         3.454493
 H        -2.061137        -0.863496         2.977794
 H        -0.939794        -1.196377         0.395016
 H        -1.726077         0.375217         0.685983
 H         0.148977         0.842125        -1.209764
 H         1.844146         1.529755        -0.392951
 H         2.107171         0.719908         2.208784
 H         0.683120         1.568826         2.624227
