19
Iteration:   319charge 0 multiplicity 1
 O         0.091136         0.043593         4.539211
 C         0.282996        -0.499864         3.219607
 C         0.248501        -1.914461         2.913755
 C        -0.867559        -0.911731         2.488134
 C        -0.906299        -0.167368         1.156776
 C         0.469211         0.298391         0.962690
 C         0.820291         1.071269        -0.277031
 O         1.179570        -0.312356        -0.163613
 C         1.186404         0.406388         2.256235
 H         0.867852         0.596630         4.547759
 H         0.919323        -2.423385         2.120227
 H        -0.107085        -2.637389         3.662603
 H        -1.758641        -1.299148         2.936335
 H        -1.222461        -0.790639         0.205883
 H        -1.729162         0.581357         1.205391
 H         0.152721         1.247166        -1.046047
 H         1.816023         1.574251        -0.354746
 H         2.242708         0.049808         2.248875
 H         1.180943         1.435322         2.548415
