19
Iteration:  3609
 O         0.235199         0.117008         4.650723
 C         0.310098        -0.445922         3.252173
 C         0.252690        -1.899477         2.843007
 C        -0.932428        -1.001965         2.547036
 C        -1.027758        -0.345002         1.153405
 C         0.459615         0.218859         0.882335
 C         0.797760         1.115265        -0.199693
 O         1.309991        -0.239447        -0.313846
 C         1.161492         0.408606         2.213619
 H        -0.683856         0.307818         4.852052
 H         0.940314        -2.461820         2.108018
 H         0.002360        -2.469440         3.731269
 H        -1.746378        -1.188824         3.281806
 H        -1.324952        -1.050459         0.342441
 H        -1.661939         0.503264         1.052593
 H         0.136086         1.625089        -0.952354
 H         1.766079         1.854965        -0.168423
 H         2.248366         0.264782         2.299929
 H         0.856289         1.393602         2.479040
