19
Iteration:  4171
 O         0.359392        -0.041601         4.547271
 C         0.287554        -0.427360         3.239190
 C         0.431760        -1.821577         2.961301
 C        -0.924290        -0.973164         2.458114
 C        -0.896069        -0.411058         1.053916
 C         0.404221         0.368734         0.943796
 C         0.635736         1.023663        -0.311916
 O         1.227116        -0.196452        -0.114440
 C         1.053516         0.541019         2.239348
 H        -0.476142        -0.271964         5.017660
 H         0.988775        -2.428386         2.198610
 H         0.198521        -2.494410         3.813152
 H        -1.840286        -1.239371         2.924517
 H        -0.764114        -1.207793         0.274856
 H        -1.740006         0.346033         1.012989
 H        -0.339501         0.977265        -0.868281
 H         1.276821         1.873022        -0.471451
 H         2.162588         0.413909         2.312897
 H         0.755867         1.668077         2.576830
