19
Iteration:  1081charge 0 multiplicity 1
 O         0.474806        -0.226170         4.690435
 C         0.289882        -0.423226         3.237156
 C         0.110988        -1.766445         2.691881
 C        -1.024012        -0.768764         2.471353
 C        -1.017227        -0.187043         1.026910
 C         0.387338         0.295979         0.825850
 C         0.942672         0.961444        -0.343172
 O         1.330500        -0.440655         0.076003
 C         0.880170         0.681067         2.346481
 H         1.462400        -0.220221         4.629558
 H         0.557956        -2.079107         1.783845
 H        -0.090448        -2.578745         3.411694
 H        -1.921576        -1.086255         2.949125
 H        -1.233735        -0.936141         0.247360
 H        -1.728197         0.628052         0.908086
 H         0.411334         1.095855        -1.303006
 H         1.895475         1.460354        -0.353616
 H         1.914856         0.604163         2.404534
 H         0.517342         1.682785         2.718731
