19
Iteration:  4843charge 0 multiplicity 1
 O         0.378805        -0.104019         4.645998
 C         0.353102        -0.358208         3.255587
 C         0.513319        -1.763497         2.769132
 C        -0.800435        -1.174358         2.516417
 C        -1.044237        -0.558887         1.088522
 C         0.258137         0.328308         0.867674
 C         0.673275         1.087559        -0.336180
 O         1.335434        -0.209690        -0.021048
 C         0.819413         0.686558         2.234174
 H         0.165504         0.880830         4.611553
 H         1.365760        -1.976814         2.057492
 H         0.440722        -2.492445         3.577395
 H        -1.626006        -1.364093         3.220950
 H        -0.966540        -1.220085         0.314958
 H        -1.997761        -0.003187         1.001980
 H         0.107331         1.069086        -1.273134
 H         1.295561         1.959101        -0.217717
 H         1.839669         1.112059         2.062806
 H         0.190578         1.501801         2.631179
