19
Iteration:  1021charge 0 multiplicity 1
 O         0.123132         0.026061         4.586547
 C         0.391696        -0.513057         3.168173
 C         0.193298        -1.909324         2.776888
 C        -0.880390        -0.847412         2.505341
 C        -1.014642        -0.147653         1.165887
 C         0.361176         0.379925         0.934087
 C         0.840157         1.029241        -0.336096
 O         1.301334        -0.352979        -0.043320
 C         1.180693         0.428686         2.244259
 H         0.718670        -0.370249         5.307773
 H         0.842991        -2.236468         1.933100
 H        -0.122799        -2.755683         3.474936
 H        -1.827598        -1.075632         2.964796
 H        -1.378510        -0.903845         0.411269
 H        -1.802812         0.656293         1.184101
 H         0.166264         1.086458        -1.154508
 H         1.764586         1.584157        -0.218592
 H         2.294817         0.220908         1.844300
 H         1.191049         1.409320         2.784261
