19
Iteration:   290
 O         0.151111         0.126644         4.566112
 C         0.250935        -0.446273         3.209420
 C         0.234412        -1.900677         2.795361
 C        -0.877912        -0.981970         2.446462
 C        -1.023872        -0.188670         1.178737
 C         0.387890         0.255130         0.936907
 C         0.816375         1.034264        -0.279462
 O         1.357220        -0.294960        -0.108104
 C         1.138889         0.343177         2.288128
 H         1.114098         0.384958         4.585556
 H         0.874618        -2.092640         1.947402
 H         0.082203        -2.600441         3.567701
 H        -1.788642        -1.160280         3.099680
 H        -1.674496        -0.480368         0.385438
 H        -1.582130         0.667159         1.581225
 H         0.178050         1.069078        -1.293668
 H         1.632038         1.746399        -0.197570
 H         2.089508        -0.176375         2.214887
 H         1.321225         1.379711         2.599133
