19
Iteration:  1433
 O         0.531781        -0.028388         4.589587
 C         0.260753        -0.484779         3.244153
 C        -0.000344        -1.896380         2.733487
 C        -1.039319        -0.825669         2.426743
 C        -1.033179        -0.168318         1.078221
 C         0.490896         0.237702         0.888187
 C         0.825364         0.974915        -0.382126
 O         1.475577        -0.286972         0.054084
 C         0.950129         0.555056         2.311258
 H         0.485612        -0.755869         5.230074
 H         0.764597        -2.281605         1.981995
 H        -0.077929        -2.747128         3.485309
 H        -1.892365        -0.872456         3.035517
 H        -1.426770        -0.874272         0.316949
 H        -1.902014         0.557029         1.018328
 H         0.165402         0.772180        -1.196722
 H         1.356734         1.865709        -0.267616
 H         1.980216         0.558708         2.396798
 H         0.501121         1.541712         2.826485
