19
Iteration:  3656charge 0 multiplicity 1
 O         0.320623        -0.175160         4.656162
 C         0.370081        -0.403824         3.220318
 C         0.253159        -1.841635         2.825458
 C        -0.930078        -0.923123         2.398722
 C        -1.017368        -0.278367         1.025598
 C         0.395252         0.365292         0.924693
 C         0.803719         0.962744        -0.364917
 O         1.282065        -0.334896         0.019262
 C         1.022864         0.684961         2.289395
 H         0.821473         0.643852         4.947072
 H         0.788782        -2.346350         2.096535
 H         0.173325        -2.417778         3.754418
 H        -1.895671        -1.140863         2.876501
 H        -1.007114        -1.045421         0.326620
 H        -1.979728         0.258327         0.834031
 H        -0.035492         0.857459        -1.105931
 H         1.255050         1.878124        -0.530298
 H         2.067758         0.363890         2.272864
 H         0.906936         1.735560         2.620771
