19
Iteration:  3440charge 0 multiplicity 1
 O         0.202156         0.038490         4.489510
 C         0.302680        -0.427293         3.200000
 C         0.291122        -1.819682         2.911144
 C        -0.864314        -0.910584         2.437325
 C        -1.000872        -0.137267         1.162079
 C         0.424647         0.186156         0.873898
 C         0.841351         1.012239        -0.249324
 O         1.275067        -0.301941        -0.193323
 C         1.086143         0.384406         2.324805
 H         0.248915        -0.654328         5.134724
 H         0.989437        -2.322748         2.237528
 H         0.074606        -2.397616         3.745340
 H        -1.792348        -1.166591         3.064875
 H        -1.650385        -0.638668         0.441511
 H        -1.480168         0.833395         1.433419
 H        -0.036327         1.230975        -0.923083
 H         1.573394         1.736807        -0.066516
 H         2.131482         0.183773         2.382639
 H         0.846124         1.380904         2.602590
