19
Iteration:  2105
 O         0.297162        -0.165306         4.614290
 C         0.362821        -0.354565         3.185483
 C         0.135841        -1.754037         2.803559
 C        -0.983222        -0.809715         2.525973
 C        -0.981512        -0.342894         1.040312
 C         0.446481         0.210649         0.856007
 C         0.827745         1.085272        -0.214507
 O         1.292392        -0.348818        -0.094187
 C         1.038593         0.591018         2.276833
 H         0.779126        -0.912027         5.059706
 H         0.792522        -2.099821         2.002394
 H        -0.105064        -2.486639         3.563009
 H        -1.805812        -0.737822         3.190303
 H        -0.854197        -1.287698         0.509995
 H        -1.677495         0.559998         0.883654
 H         0.446814         1.189383        -1.233818
 H         1.615588         1.739051        -0.058118
 H         2.138472         0.626838         2.167069
 H         0.580174         1.548948         2.634109
