19
Iteration:  1989charge 0 multiplicity 1
 O         0.231462         0.083663         4.613038
 C         0.304475        -0.432905         3.300004
 C         0.054500        -1.918279         2.995790
 C        -0.956093        -0.870771         2.467890
 C        -0.892614        -0.373169         1.000220
 C         0.467770         0.305716         0.852530
 C         0.853651         1.169759        -0.205144
 O         1.208236        -0.218563        -0.318151
 C         1.210815         0.313759         2.314421
 H         0.709935        -0.576625         5.199326
 H         0.640153        -2.281336         2.187262
 H        -0.203009        -2.573373         3.789464
 H        -1.926255        -1.135570         2.864998
 H        -0.830508        -1.256641         0.372815
 H        -1.714691         0.298292         0.853789
 H         0.124009         1.570064        -1.023365
 H         1.624435         1.972712         0.015429
 H         2.324477        -0.050394         2.145175
 H         1.207633         1.296718         2.884888
