19
Iteration:  3661charge 0 multiplicity 1
 O         0.339376        -0.208856         4.637944
 C         0.349784        -0.404176         3.285638
 C         0.241729        -1.811492         2.827636
 C        -0.907379        -0.904880         2.439776
 C        -1.013787        -0.296533         1.016279
 C         0.333476         0.412776         0.923032
 C         0.807158         0.888386        -0.379781
 O         1.308210        -0.349093        -0.014923
 C         0.977515         0.728772         2.302580
 H         0.924159         0.439321         4.986525
 H         0.809172        -2.147012         1.848978
 H         0.195997        -2.448465         3.712233
 H        -1.845643        -1.176497         2.897712
 H        -1.053645        -1.117694         0.156266
 H        -1.865308         0.389565         0.746428
 H         0.058297         0.932127        -1.149090
 H         1.476904         1.854005        -0.457719
 H         2.062883         0.481827         2.365398
 H         0.920279         1.782116         2.675017
