19
Iteration:  3728
 O         0.417001        -0.057200         4.486846
 C         0.319368        -0.386933         3.169677
 C         0.436499        -1.823618         2.658958
 C        -0.853021        -1.031224         2.442297
 C        -1.111357        -0.148503         1.107441
 C         0.280951         0.451948         0.920829
 C         0.908899         0.873688        -0.359700
 O         1.200778        -0.400817         0.257969
 C         0.874995         0.690737         2.307302
 H         0.269236        -0.811965         5.123779
 H         1.145236        -2.158641         1.904564
 H         0.301482        -2.605496         3.491997
 H        -1.705872        -1.647968         2.810324
 H        -1.420098        -0.867217         0.238780
 H        -1.976640         0.544818         1.226848
 H         0.405833         0.936292        -1.322591
 H         1.832279         1.514251        -0.466110
 H         1.980235         0.644864         2.239152
 H         0.516174         1.696304         2.607863
