19
Iteration:  4105charge 0 multiplicity 1
 O         0.497079        -0.058632         4.579450
 C         0.270200        -0.352329         3.168614
 C         0.454922        -1.753667         2.709317
 C        -0.888980        -1.113022         2.439017
 C        -1.021893        -0.352298         1.129989
 C         0.289613         0.332239         0.901785
 C         0.825953         0.902074        -0.281568
 O         1.220618        -0.386037         0.002777
 C         0.853227         0.834359         2.339990
 H        -0.085454        -0.572613         5.160227
 H         1.003583        -2.210693         1.841101
 H         0.411513        -2.376622         3.545171
 H        -1.760416        -1.501288         2.826663
 H        -1.301034        -0.853121         0.143309
 H        -1.860180         0.449204         1.204647
 H         0.300404         1.119330        -1.204534
 H         1.545616         1.690011         0.074784
 H         1.959877         0.943845         2.229038
 H         0.421287         1.879358         2.704387
