19
Iteration:   920
 O         0.375651        -0.060252         4.506023
 C         0.262960        -0.405825         3.192718
 C         0.001926        -1.889316         2.859184
 C        -1.025983        -0.783128         2.525292
 C        -0.943055        -0.426364         1.013222
 C         0.386580         0.339092         0.969572
 C         0.814744         1.048884        -0.256985
 O         1.371659        -0.267357        -0.068881
 C         1.169007         0.436177         2.332102
 H         1.289501         0.092446         4.683697
 H         0.539888        -2.379531         1.977815
 H        -0.249770        -2.396764         3.793825
 H        -2.012042        -0.712097         3.007923
 H        -1.078798        -1.136009         0.259818
 H        -1.640563         0.435991         0.742792
 H         0.025069         1.299278        -0.942579
 H         1.296559         1.978971        -0.135145
 H         2.267601         0.098252         2.229180
 H         1.120243         1.547874         2.494068
