19
Iteration:  3992
 O         0.400668        -0.084284         4.603261
 C         0.328451        -0.406393         3.251132
 C         0.315011        -1.844217         2.804324
 C        -0.926489        -1.006957         2.520149
 C        -0.938442        -0.424621         1.065080
 C         0.398621         0.260526         0.945886
 C         0.785274         1.112695        -0.365965
 O         1.188691        -0.263424        -0.070976
 C         0.980071         0.628073         2.279257
 H        -0.247277         0.661941         4.825177
 H         0.982490        -2.174426         2.039339
 H         0.362034        -2.517949         3.633199
 H        -1.791567        -1.304081         3.198834
 H        -0.994588        -1.112693         0.142135
 H        -1.854291         0.208602         0.939569
 H         0.045658         1.179917        -1.182968
 H         1.448915         1.936767        -0.365830
 H         2.101622         0.547411         2.350722
 H         0.719272         1.726892         2.632515
