19
Iteration:   578charge 0 multiplicity 1
 O         0.458234        -0.170343         4.566569
 C         0.249979        -0.361952         3.214384
 C         0.110816        -1.825494         2.865082
 C        -0.987479        -0.852719         2.470089
 C        -1.007758        -0.299534         1.068780
 C         0.439732         0.304095         0.877141
 C         0.897952         0.981768        -0.233906
 O         1.290698        -0.340254        -0.085143
 C         1.021731         0.571111         2.321925
 H         0.692984         0.751644         4.820795
 H         0.535589        -2.225073         1.946355
 H        -0.226634        -2.594848         3.643001
 H        -2.020317        -0.809840         2.818695
 H        -1.017928        -1.146230         0.355840
 H        -1.878644         0.323114         0.590314
 H         0.292012         1.215203        -1.098775
 H         1.505915         1.931086        -0.072286
 H         2.067792         0.333727         2.321032
 H         0.880581         1.597801         2.698466
