19
Iteration:  4154
 O         0.374067        -0.022628         4.590850
 C         0.342456        -0.387197         3.199666
 C         0.293153        -1.874287         2.784542
 C        -0.850300        -1.024609         2.521935
 C        -0.977884        -0.444723         1.137620
 C         0.393970         0.354178         0.901422
 C         0.613073         1.013334        -0.367148
 O         1.332389        -0.236262        -0.064564
 C         1.024586         0.670180         2.337365
 H        -0.481228        -0.387468         4.897817
 H         0.943478        -2.187641         1.981216
 H         0.318933        -2.598765         3.670384
 H        -1.824482        -1.110521         3.128437
 H        -1.140171        -1.111246         0.305376
 H        -1.807737         0.285085         1.005257
 H        -0.092371         0.916318        -1.224140
 H         1.263015         1.897372        -0.475399
 H         2.085404         0.549259         2.171181
 H         0.881346         1.635850         2.662619
