19
Iteration:   611charge 0 multiplicity 1
 O         0.321073        -0.046063         4.531095
 C         0.387677        -0.482491         3.200034
 C         0.063968        -1.954876         2.961576
 C        -0.935595        -0.873539         2.503852
 C        -0.993742        -0.214055         1.173568
 C         0.439845         0.277884         0.881145
 C         0.892008         1.082487        -0.368443
 O         1.307910        -0.261332        -0.128917
 C         1.117097         0.461746         2.246563
 H        -0.531069         0.357182         4.598852
 H         0.474157        -2.576352         2.148922
 H        -0.253911        -2.612519         3.779983
 H        -1.821188        -0.832836         3.136322
 H        -1.229826        -0.969890         0.433286
 H        -1.784802         0.623880         1.254431
 H         0.291575         1.134973        -1.245730
 H         1.519808         1.933048         0.000976
 H         2.189252         0.320829         2.184841
 H         0.946584         1.395697         2.813113
