19
Iteration:  2922
 O         0.222643        -0.033156         4.578125
 C         0.340407        -0.436956         3.213035
 C         0.353451        -1.878429         2.644752
 C        -0.857887        -1.000902         2.377628
 C        -0.996101        -0.108936         1.125584
 C         0.413040         0.408125         1.001771
 C         0.913946         0.856141        -0.307124
 O         1.167362        -0.457457        -0.034284
 C         0.973209         0.714408         2.424248
 H         0.898368        -0.442982         5.142606
 H         0.834683        -2.206245         1.753039
 H         0.139665        -2.661466         3.304960
 H        -1.748276        -1.279380         2.921193
 H        -1.360093        -0.584928         0.270519
 H        -1.538654         0.792519         1.422813
 H         0.146430         0.969549        -1.170845
 H         1.705032         1.614734        -0.382229
 H         2.061150         0.813180         2.431175
 H         0.444128         1.613295         2.573977
