19
Iteration:  3804charge 0 multiplicity 1
 O         0.322394        -0.096187         4.636158
 C         0.338161        -0.367940         3.207858
 C         0.312234        -1.841984         2.816606
 C        -0.933016        -0.945983         2.582928
 C        -0.974696        -0.373922         1.193977
 C         0.389230         0.327771         0.892969
 C         0.782356         1.037975        -0.361343
 O         1.311353        -0.268082        -0.159871
 C         1.028860         0.584000         2.221882
 H        -0.617959        -0.057915         4.868180
 H         0.874608        -2.199574         1.971092
 H         0.053899        -2.397909         3.771372
 H        -1.780803        -1.418147         3.081071
 H        -1.343952        -1.135277         0.392427
 H        -1.723086         0.454651         1.019596
 H         0.003562         1.009985        -1.057468
 H         1.450548         1.910880        -0.377591
 H         2.128866         0.380816         2.199739
 H         1.014470         1.666454         2.577620
