19
Iteration:  3950
 O         0.319518         0.113369         4.599213
 C         0.401976        -0.440660         3.269198
 C         0.258260        -1.917992         2.919017
 C        -0.873617        -1.023369         2.531450
 C        -0.966627        -0.468126         1.100573
 C         0.411078         0.192318         0.803589
 C         0.699178         1.154981        -0.269294
 O         1.283027        -0.107101        -0.199056
 C         1.059122         0.447845         2.245981
 H        -0.527156        -0.310589         4.901751
 H         0.770502        -2.237245         2.100323
 H         0.177600        -2.541004         3.772265
 H        -1.827027        -1.011809         3.172618
 H        -1.492493        -1.321399         0.420979
 H        -1.706984         0.456384         1.128658
 H         0.017637         1.328218        -1.117198
 H         1.441905         1.969678        -0.141695
 H         2.149685         0.155904         2.219799
 H         1.000758         1.503358         2.653144
