19
Iteration:   376
 O         0.385328        -0.014880         4.617415
 C         0.299812        -0.382522         3.253671
 C         0.099750        -1.772001         2.864152
 C        -1.048286        -0.874540         2.530594
 C        -0.980985        -0.357668         1.047147
 C         0.445296         0.209483         0.833248
 C         0.798478         1.046016        -0.286213
 O         1.407740        -0.287192        -0.127761
 C         1.034558         0.535583         2.289217
 H         0.592979        -0.885943         5.037928
 H         0.622291        -2.179435         2.020408
 H        -0.165856        -2.527890         3.608144
 H        -1.963257        -1.088239         3.145301
 H        -1.200743        -1.174483         0.270727
 H        -1.598993         0.555137         0.928586
 H         0.161345         1.204727        -1.155777
 H         1.485044         1.835147        -0.149365
 H         2.041057         0.141577         2.185213
 H         1.066675         1.531589         2.617495
