19
Iteration:  3574
 O         0.200259         0.114982         4.503360
 C         0.300933        -0.419341         3.203503
 C         0.225073        -1.858723         3.040926
 C        -0.976274        -0.927375         2.489487
 C        -0.905378        -0.427693         1.021257
 C         0.478261         0.343759         0.960802
 C         0.791419         1.191743        -0.206967
 O         1.154988        -0.228086        -0.256782
 C         1.227607         0.303957         2.249232
 H         0.242052        -0.492071         5.251223
 H         0.895391        -2.460715         2.347709
 H         0.084254        -2.426411         3.995921
 H        -1.858955        -1.188923         3.037271
 H        -0.842537        -1.313669         0.294780
 H        -1.784002         0.114780         0.777202
 H        -0.041796         1.624885        -0.788527
 H         1.849351         1.727529        -0.075946
 H         2.226317        -0.142393         2.281975
 H         1.345338         1.329298         2.547386
