19
Iteration:  2254charge 0 multiplicity 1
 O         0.302143        -0.030504         4.526932
 C         0.292899        -0.486434         3.185382
 C         0.118256        -1.907070         2.770904
 C        -1.005690        -0.882114         2.523828
 C        -0.892675        -0.201097         1.195759
 C         0.480763         0.370446         0.953729
 C         0.747323         0.915644        -0.379430
 O         1.359267        -0.289204        -0.031244
 C         1.091361         0.582181         2.302400
 H         0.742720        -0.782952         5.014058
 H         0.602929        -2.135345         1.792695
 H        -0.094421        -2.741178         3.491695
 H        -1.985935        -1.050937         2.939477
 H        -1.247353        -0.839111         0.370959
 H        -1.522698         0.649014         1.105557
 H         0.000192         0.923780        -1.211314
 H         1.475086         1.812119        -0.455223
 H         2.130308         0.552541         2.424684
 H         0.841599         1.456661         2.692947
