19
Iteration:  4262charge 0 multiplicity 1
 O         0.309603         0.114880         4.536724
 C         0.329906        -0.470790         3.280004
 C         0.358902        -1.923433         2.986156
 C        -0.862175        -1.028724         2.506490
 C        -0.883083        -0.478274         1.072028
 C         0.366438         0.403214         0.943706
 C         0.613859         1.160992        -0.325866
 O         1.258678        -0.186843        -0.266945
 C         1.074025         0.422239         2.317793
 H        -0.391291        -0.081091         5.143227
 H         1.089541        -2.376512         2.245760
 H         0.083030        -2.607522         3.809068
 H        -1.902418        -1.176116         2.893355
 H        -0.764008        -1.229391         0.409905
 H        -1.841133         0.088229         0.908590
 H        -0.212984         1.311636        -0.994565
 H         1.174208         2.127343        -0.212133
 H         2.120584         0.046102         2.243152
 H         1.091456         1.459643         2.591340
