19
Iteration:  2585charge 0 multiplicity 1
 O         0.290712         0.094046         4.569276
 C         0.302849        -0.429847         3.223734
 C         0.230376        -1.962328         2.693734
 C        -0.941795        -1.006604         2.437970
 C        -1.013741        -0.159050         1.144479
 C         0.434815         0.346220         0.933185
 C         0.867451         1.014444        -0.276808
 O         1.293119        -0.371814        -0.052700
 C         0.994036         0.466155         2.325722
 H         1.071255        -0.114960         5.059674
 H         0.904909        -2.180519         1.873080
 H        -0.093697        -2.723247         3.330360
 H        -1.846699        -1.179642         3.039123
 H        -1.415820        -0.727755         0.317885
 H        -1.632071         0.701585         1.235401
 H         0.199138         0.994936        -1.191276
 H         1.647854         1.820812        -0.108879
 H         2.088087         0.532051         2.467406
 H         0.753362         1.516137         2.651936
