19
Iteration:  3667charge 0 multiplicity 1
 O         0.343565        -0.243566         4.642568
 C         0.313835        -0.362053         3.277999
 C         0.259392        -1.783888         2.783740
 C        -0.916368        -0.887524         2.500565
 C        -0.986614        -0.332759         1.014726
 C         0.305581         0.444663         0.915816
 C         0.813781         0.870472        -0.395147
 O         1.330519        -0.364944        -0.034764
 C         0.942018         0.726817         2.328701
 H         1.097113         0.334343         4.919602
 H         0.841162        -1.990750         1.957653
 H         0.130158        -2.544053         3.552328
 H        -1.848060        -1.144233         3.005175
 H        -1.061038        -1.016849         0.239736
 H        -1.730592         0.476901         0.876898
 H         0.111699         0.940716        -1.274418
 H         1.606624         1.577011        -0.358966
 H         2.039438         0.659271         2.256722
 H         0.753656         1.750283         2.714627
