19
Iteration:  1533charge 0 multiplicity 1
 O         0.147297        -0.020870         4.440744
 C         0.358328        -0.460625         3.160479
 C         0.314192        -1.876174         2.615028
 C        -0.860914        -0.959942         2.431621
 C        -0.923141        -0.033571         1.286168
 C         0.456061         0.401354         0.966205
 C         0.869441         0.927703        -0.306769
 O         1.154040        -0.470740         0.054714
 C         1.047927         0.577528         2.355233
 H         0.094619        -0.746267         5.120215
 H         0.989289        -2.245008         1.857501
 H         0.492937        -2.528568         3.503882
 H        -1.857406        -1.076552         2.987477
 H        -1.317958        -0.513736         0.360627
 H        -1.644542         0.868102         1.549294
 H         0.199316         0.980811        -1.163449
 H         1.717795         1.450927        -0.501700
 H         2.094101         0.492590         2.417727
 H         0.770047         1.689877         2.569140
