19
Iteration:  3426
 O         0.187739         0.047491         4.603612
 C         0.240950        -0.404623         3.244397
 C         0.370290        -1.912150         2.831604
 C        -0.933557        -0.957785         2.411297
 C        -1.054856        -0.106431         1.140203
 C         0.477079         0.276388         0.928686
 C         0.793710         1.037605        -0.246347
 O         1.278178        -0.435738        -0.159017
 C         1.097676         0.495866         2.263651
 H         0.840840        -0.560224         5.082275
 H         1.225489        -2.172871         2.181622
 H        -0.094736        -2.660212         3.532608
 H        -1.898376        -1.269038         2.862708
 H        -1.527136        -0.392168         0.205262
 H        -1.543457         0.921460         1.476774
 H         0.243686         1.125842        -1.130587
 H         1.531452         1.834948        -0.280048
 H         2.150909         0.095929         2.204635
 H         1.221579         1.564250         2.592037
