19
Iteration:  1381charge 0 multiplicity 1
 O         0.108896        -0.039735         4.574585
 C         0.395566        -0.428939         3.248925
 C         0.210428        -1.867200         2.807109
 C        -0.921931        -0.743058         2.514890
 C        -0.928491        -0.342497         1.052982
 C         0.476300         0.247403         0.954497
 C         0.891300         1.105597        -0.206421
 O         1.146854        -0.320913        -0.160751
 C         1.181446         0.477610         2.257167
 H         0.788342        -0.464996         5.157875
 H         0.525422        -2.390615         1.882342
 H        -0.315353        -2.522173         3.545588
 H        -1.753619        -0.938965         3.200370
 H        -1.023867        -1.110566         0.348092
 H        -1.733627         0.396578         0.929910
 H         0.236359         1.371126        -1.105938
 H         1.814649         1.609942        -0.261246
 H         2.249931         0.332427         2.220990
 H         0.964470         1.528183         2.634350
