19
Iteration:  3780
 O         0.288241        -0.126436         4.601944
 C         0.351119        -0.404643         3.227208
 C         0.478683        -1.775120         2.729361
 C        -0.929174        -0.905615         2.522002
 C        -1.000513        -0.273802         1.163761
 C         0.401351         0.203582         0.888673
 C         0.774161         0.977156        -0.299575
 O         1.262580        -0.370887        -0.089693
 C         0.985535         0.672197         2.275550
 H        -0.602386        -0.470198         4.929136
 H         1.026904        -1.778493         1.747054
 H         0.292810        -2.610301         3.519601
 H        -1.844327        -0.837982         3.195045
 H        -1.689302        -0.946607         0.544201
 H        -1.593769         0.700188         1.136762
 H         0.066051         1.045871        -1.070645
 H         1.542653         1.772623        -0.192437
 H         2.114118         0.781952         2.316051
 H         0.657210         1.789083         2.321133
