19
Iteration:  2178charge 0 multiplicity 1
 O         0.205127        -0.154208         4.497730
 C         0.376130        -0.415004         3.172910
 C         0.347025        -1.804868         2.592222
 C        -0.894339        -0.988602         2.470573
 C        -1.061967        -0.058224         1.220301
 C         0.382064         0.417255         0.957099
 C         0.999240         0.867705        -0.306286
 O         1.165307        -0.523440         0.080966
 C         0.958394         0.699968         2.341839
 H         1.051740         0.159984         4.801071
 H         0.887981        -2.042109         1.633993
 H         0.157794        -2.665075         3.308798
 H        -1.726311        -1.168814         3.084160
 H        -1.316599        -0.571572         0.284882
 H        -1.739106         0.710965         1.506825
 H         0.444082         1.106046        -1.235747
 H         1.833040         1.621740        -0.184966
 H         2.022048         0.694744         2.303678
 H         0.677840         1.787719         2.583485
