19
Iteration:  2756
 O         0.235450         0.066008         4.573831
 C         0.322425        -0.435799         3.275509
 C         0.023394        -1.884081         3.095036
 C        -0.875547        -0.853982         2.446973
 C        -0.790637        -0.468202         1.028727
 C         0.628630         0.207204         0.829688
 C         0.675592         1.226940        -0.098222
 O         1.159502        -0.132870        -0.384732
 C         1.270380         0.210463         2.283136
 H        -0.730580         0.345579         4.635036
 H         0.558722        -2.460878         2.253912
 H        -0.376401        -2.410994         3.956319
 H        -1.821144        -0.755525         2.979180
 H        -0.876512        -1.252932         0.304420
 H        -1.463982         0.383964         0.829849
 H        -0.210368         1.635882        -0.664564
 H         1.543106         1.949453         0.041242
 H         2.272125        -0.238456         2.433014
 H         1.248474         1.270494         2.590278
