19
Iteration:  3507
 O         0.439117        -0.060462         4.619269
 C         0.219443        -0.336765         3.212167
 C         0.006302        -1.860280         2.989835
 C        -1.009030        -0.869017         2.544960
 C        -0.899649        -0.490834         1.003762
 C         0.488552         0.146724         0.853869
 C         0.689231         1.173614        -0.232641
 O         1.412677        -0.161384        -0.226053
 C         1.137430         0.418301         2.249050
 H         0.026304         0.843898         4.756074
 H         0.407795        -2.564576         2.312625
 H         0.022354        -2.262681         4.026767
 H        -2.039493        -0.866674         2.917497
 H        -1.007939        -1.313902         0.242920
 H        -1.672863         0.237479         0.790181
 H        -0.146563         1.394672        -0.950748
 H         1.364808         1.982586         0.116885
 H         2.081870        -0.094745         2.220301
 H         1.266868         1.435292         2.544191
