19
Iteration:  4011
 O         0.333229        -0.175652         4.722481
 C         0.318782        -0.382794         3.239757
 C         0.358611        -1.834671         2.777079
 C        -0.825487        -0.996062         2.448104
 C        -0.947399        -0.342524         1.135039
 C         0.354946         0.432268         0.921884
 C         0.722609         0.970722        -0.397654
 O         1.265351        -0.353853        -0.077871
 C         0.930531         0.705970         2.276137
 H         0.481031         0.827511         4.834998
 H         1.078710        -2.191904         1.870658
 H         0.153841        -2.678055         3.437356
 H        -1.844628        -1.151338         2.764914
 H        -1.135039        -1.099274         0.456160
 H        -1.786449         0.271594         1.020963
 H        -0.094914         1.088129        -1.170435
 H         1.515794         1.702777        -0.409846
 H         2.018087         0.809248         2.137942
 H         0.595809         1.673382         2.672866
