19
Iteration:  4572charge 0 multiplicity 1
 O         0.164022         0.011255         4.530738
 C         0.324384        -0.400964         3.212080
 C         0.429795        -1.836759         2.884944
 C        -0.807585        -1.130520         2.480145
 C        -0.918274        -0.391030         1.160156
 C         0.399261         0.276759         0.926174
 C         0.663598         1.083713        -0.266675
 O         1.194585        -0.192850        -0.180181
 C         1.046437         0.526817         2.284138
 H         1.011630         0.379915         4.847433
 H         1.209815        -1.993426         2.082321
 H         0.265709        -2.552285         3.705020
 H        -1.729318        -1.251688         3.061067
 H        -1.138985        -1.098336         0.326535
 H        -1.758005         0.320648         1.301585
 H        -0.146369         1.083967        -1.078775
 H         1.411708         1.879174        -0.294967
 H         2.152860         0.404318         2.385895
 H         0.830981         1.620364         2.603232
