19
Iteration:  3742
 O         0.419842        -0.018366         4.575349
 C         0.286887        -0.464918         3.156930
 C         0.491751        -1.836463         2.698936
 C        -0.940024        -1.038259         2.388437
 C        -1.039042        -0.256325         1.081050
 C         0.321705         0.485380         0.971019
 C         0.932924         0.881440        -0.402126
 O         1.111890        -0.408063         0.151468
 C         0.920725         0.762991         2.339270
 H        -0.092662        -0.636878         5.112771
 H         1.148364        -1.977983         1.882887
 H         0.367660        -2.737304         3.264233
 H        -1.806269        -1.322082         3.009267
 H        -1.252214        -0.650386         0.116566
 H        -1.678942         0.571060         1.330487
 H         0.107374         0.780553        -1.267597
 H         1.819130         1.575694        -0.410978
 H         1.990371         0.687920         2.252989
 H         0.697760         1.552497         3.008018
