19
Iteration:   653
 O         0.241207         0.021107         4.591878
 C         0.204733        -0.348275         3.284467
 C         0.217407        -1.816335         2.800483
 C        -0.908175        -0.812858         2.449442
 C        -0.915225        -0.283755         1.063468
 C         0.524642         0.252124         0.902049
 C         0.785083         1.097480        -0.227394
 O         1.132389        -0.366090        -0.190082
 C         1.284142         0.323600         2.379081
 H        -0.512657        -0.222016         5.144323
 H         0.967029        -2.135098         2.033495
 H         0.112573        -2.636389         3.540514
 H        -1.917814        -1.132667         2.687103
 H        -1.295539        -0.946406         0.189419
 H        -1.542940         0.680479         1.185536
 H         0.014450         1.496104        -0.950944
 H         1.850164         1.538220        -0.318996
 H         2.232485        -0.192699         2.581066
 H         1.309070         1.552888         2.384425
