19
Iteration:  3294charge 0 multiplicity 1
 O         0.364206        -0.224460         4.551047
 C         0.384429        -0.389968         3.135399
 C         0.243295        -1.781172         2.729854
 C        -0.955971        -0.852218         2.542112
 C        -1.050216        -0.211127         1.147320
 C         0.420346         0.442060         0.912090
 C         0.952065         0.957914        -0.319881
 O         1.216864        -0.472833         0.058731
 C         0.980343         0.664461         2.263399
 H        -0.533191        -0.515684         4.874783
 H         0.811401        -2.218087         1.844222
 H         0.062265        -2.514059         3.529760
 H        -1.785449        -0.805146         3.184231
 H        -1.154829        -0.952583         0.375632
 H        -1.682959         0.710001         1.012265
 H         0.277005         1.011529        -1.140201
 H         1.876289         1.585530        -0.475137
 H         2.097223         0.709615         2.218786
 H         0.557221         1.603076         2.625596
