19
Iteration:  3508charge 0 multiplicity 1
 O         0.435189        -0.060086         4.620133
 C         0.217650        -0.337803         3.211800
 C         0.001539        -1.854009         2.984832
 C        -1.006985        -0.878266         2.545914
 C        -0.909546        -0.492598         1.009922
 C         0.494931         0.147000         0.860003
 C         0.682087         1.164925        -0.238510
 O         1.420340        -0.152470        -0.232649
 C         1.140687         0.418180         2.250419
 H         0.068294         0.847970         4.723864
 H         0.422084        -2.577634         2.328480
 H        -0.003681        -2.275038         4.036912
 H        -1.997737        -0.827081         2.944570
 H        -1.032111        -1.307315         0.236540
 H        -1.650735         0.230404         0.806176
 H        -0.139984         1.407949        -0.961203
 H         1.387466         1.978830         0.157613
 H         2.080222        -0.110652         2.242480
 H         1.252027         1.447026         2.511988
