19
Iteration:   196charge 0 multiplicity 1
 O         0.383968         0.012475         4.521792
 C         0.309041        -0.414069         3.200643
 C         0.068048        -1.856496         2.704724
 C        -1.010970        -0.837977         2.458595
 C        -1.039327        -0.207989         1.136822
 C         0.432674         0.226856         0.935318
 C         0.728262         0.977058        -0.244993
 O         1.507635        -0.354733         0.055558
 C         1.036008         0.510425         2.241941
 H         1.056384        -0.512400         4.950825
 H         0.774528        -2.222954         1.965386
 H        -0.184363        -2.514710         3.566193
 H        -1.937704        -1.002766         3.073578
 H        -1.371900        -0.972120         0.298732
 H        -1.734191         0.691541         0.971553
 H         0.112838         0.915969        -1.200989
 H         1.359847         1.852405        -0.196831
 H         2.111003         0.386268         2.177455
 H         0.778192         1.506817         2.687609
