19
Iteration:  1440charge 0 multiplicity 1
 O         0.509415        -0.033470         4.520460
 C         0.323595        -0.515225         3.209933
 C         0.034107        -1.879987         2.724887
 C        -1.021360        -0.828937         2.463466
 C        -1.030276        -0.204918         1.094337
 C         0.468079         0.276513         0.929225
 C         0.814038         0.943515        -0.304704
 O         1.452575        -0.304863         0.073980
 C         0.886349         0.582390         2.312201
 H         0.419898        -0.662111         5.215267
 H         0.590967        -2.186163         1.822011
 H        -0.319104        -2.715967         3.285837
 H        -1.848871        -0.647635         3.172795
 H        -1.198801        -0.896488         0.172438
 H        -1.673490         0.690813         1.070051
 H         0.306753         0.774069        -1.272054
 H         1.583082         1.853127        -0.334012
 H         2.040739         0.654753         2.271849
 H         0.532487         1.492789         2.662206
