19
Iteration:  2675charge 0 multiplicity 1
 O         0.352587         0.179272         4.486113
 C         0.274659        -0.485197         3.258271
 C         0.027279        -1.939692         3.011075
 C        -0.987910        -0.961797         2.486708
 C        -0.933184        -0.443541         1.064423
 C         0.490430         0.184118         0.887716
 C         0.820616         1.214028        -0.181017
 O         1.315858        -0.107711        -0.214512
 C         1.133544         0.319156         2.203170
 H         0.419492        -0.488400         5.181395
 H         0.711738        -2.400873         2.327167
 H        -0.328968        -2.580187         3.865221
 H        -2.035937        -0.858653         2.972765
 H        -1.248323        -1.137776         0.270535
 H        -1.540544         0.405197         0.943403
 H        -0.061221         1.366925        -0.843482
 H         1.627698         2.094672         0.015101
 H         2.137329        -0.090433         2.237186
 H         1.230573         1.334804         2.634890
