19
Iteration:  1356
 O         0.074702         0.052578         4.548721
 C         0.280453        -0.422622         3.246709
 C         0.220859        -2.004106         2.824793
 C        -0.937814        -0.903175         2.543456
 C        -0.958004        -0.220288         1.152553
 C         0.462822         0.295490         0.925102
 C         0.883748         1.132248        -0.199078
 O         1.206433        -0.320758        -0.276988
 C         1.234857         0.337767         2.283476
 H         0.908544         0.559676         4.775381
 H         0.908768        -2.261459         1.930838
 H         0.189630        -2.717891         3.674427
 H        -1.782934        -1.076772         3.157665
 H        -1.284541        -0.807639         0.301963
 H        -1.623817         0.674815         1.340775
 H         0.336241         1.484953        -1.023091
 H         1.802839         1.693801        -0.132468
 H         2.254231         0.102941         2.403091
 H         1.043287         1.474387         2.617431
