19
Iteration:  4092charge 0 multiplicity 1
 O         0.485530        -0.062221         4.533053
 C         0.257216        -0.316635         3.207355
 C         0.490726        -1.787206         2.698138
 C        -0.833257        -1.061787         2.447135
 C        -0.992513        -0.306167         1.081435
 C         0.307017         0.406098         0.958267
 C         0.864776         0.981519        -0.334537
 O         1.129401        -0.428472         0.132232
 C         0.768471         0.709201         2.263577
 H         0.074959        -0.791743         5.040455
 H         1.222949        -1.927746         1.981322
 H         0.425156        -2.528257         3.431189
 H        -1.660305        -1.519842         2.963842
 H        -1.173438        -1.095734         0.270841
 H        -1.796920         0.448069         1.188273
 H         0.257472         1.061615        -1.203901
 H         1.798576         1.610646        -0.419946
 H         1.876006         0.752975         2.390777
 H         0.295905         1.766715         2.585634
