19
Iteration:   987
 O         0.150222         0.093065         4.525058
 C         0.239806        -0.420239         3.243312
 C         0.241463        -1.883634         2.906637
 C        -0.945014        -0.989876         2.398298
 C        -0.853164        -0.162308         1.149046
 C         0.563415         0.260963         0.924591
 C         0.808986         1.105793        -0.234631
 O         1.118399        -0.337303        -0.194412
 C         1.209698         0.357149         2.296833
 H         0.424419        -0.642211         5.146457
 H         0.989541        -2.195887         2.112531
 H         0.004952        -2.667280         3.759678
 H        -1.878482        -1.184164         2.778857
 H        -1.346670        -0.703732         0.365232
 H        -1.417045         0.821598         1.367211
 H         0.123372         1.559248        -0.874393
 H         1.729828         1.614737        -0.433006
 H         2.384781         0.196773         2.187997
 H         1.003544         1.321655         2.807602
