19
Iteration:  1816charge 0 multiplicity 1
 O         0.249680        -0.233853         4.635532
 C         0.277569        -0.335078         3.152312
 C         0.331044        -1.759760         2.712626
 C        -0.900829        -0.896995         2.437837
 C        -1.036031        -0.155873         1.102303
 C         0.430659         0.404048         0.919220
 C         0.961362         0.937079        -0.373566
 O         1.180776        -0.467263         0.110885
 C         0.988995         0.660668         2.287544
 H         1.167315        -0.487712         4.738130
 H         0.911880        -2.087903         1.911448
 H         0.096298        -2.611229         3.365382
 H        -1.786953        -1.127821         2.988798
 H        -1.195468        -0.790681         0.165811
 H        -1.965309         0.596482         1.139271
 H         0.247219         1.034691        -1.124787
 H         1.792763         1.580187        -0.239046
 H         2.015541         0.578683         2.322753
 H         0.697308         1.702549         2.663021
