19
Iteration:  2882charge 0 multiplicity 1
 O         0.103597        -0.009736         4.652130
 C         0.340002        -0.373310         3.215824
 C         0.332536        -1.828289         2.791477
 C        -0.869031        -0.977819         2.479087
 C        -1.010363        -0.231665         1.122024
 C         0.388167         0.330399         0.897817
 C         0.844280         0.986214        -0.345563
 O         1.229022        -0.307484        -0.111543
 C         1.162303         0.501664         2.262600
 H         0.462869        -0.764964         5.183335
 H         1.064124        -2.198291         2.034730
 H         0.153573        -2.539742         3.589590
 H        -1.744603        -1.142348         2.996043
 H        -1.329332        -0.787547         0.170023
 H        -1.762248         0.608002         1.245793
 H         0.109332         1.112802        -1.054222
 H         1.528823         1.737729        -0.060719
 H         2.182174         0.087924         2.084793
 H         1.258723         1.505200         2.804284
