19
Iteration:  1027
 O         0.137898        -0.017647         4.605546
 C         0.386542        -0.513331         3.191892
 C         0.163098        -1.910601         2.753528
 C        -0.889450        -0.793403         2.509677
 C        -1.023015        -0.207848         1.177303
 C         0.399965         0.357452         0.892868
 C         0.887870         0.999272        -0.324605
 O         1.273464        -0.331286        -0.031861
 C         1.152673         0.471542         2.221030
 H         0.915624        -0.342372         5.086539
 H         0.823140        -2.152870         1.928356
 H         0.007032        -2.721344         3.473312
 H        -1.812843        -0.863375         3.105209
 H        -1.250648        -0.812054         0.298472
 H        -1.773935         0.576003         1.294318
 H         0.167815         1.039015        -1.199020
 H         1.750655         1.693624        -0.226015
 H         2.153974         0.245695         2.189444
 H         1.005985         1.508810         2.536403
