19
Iteration:  1735charge 0 multiplicity 1
 O         0.374902         0.059482         4.590754
 C         0.304236        -0.465456         3.268959
 C         0.070899        -1.980046         2.944338
 C        -0.977224        -0.901202         2.410649
 C        -1.024052        -0.325072         0.986367
 C         0.433502         0.335043         0.892760
 C         0.889862         1.144905        -0.227547
 O         1.291649        -0.235341        -0.108153
 C         1.093020         0.426561         2.248743
 H         0.398820        -0.679847         5.249475
 H         0.990507        -2.386280         2.507129
 H        -0.416458        -2.514020         3.769813
 H        -1.920168        -1.001657         2.955424
 H        -0.992202        -1.031011         0.114585
 H        -2.077714         0.341195         0.818132
 H         0.307115         1.376780        -1.140692
 H         1.729648         1.882715        -0.195934
 H         2.179678        -0.000998         2.101641
 H         1.162034         1.443070         2.530939
