19
Iteration:  3660charge 0 multiplicity 1
 O         0.336250        -0.202099         4.640757
 C         0.355469        -0.407609         3.276276
 C         0.242279        -1.817979         2.831036
 C        -0.911627        -0.908627         2.429952
 C        -1.015290        -0.291678         1.018233
 C         0.344245         0.403509         0.924221
 C         0.808026         0.902303        -0.378164
 O         1.302895        -0.346502        -0.008889
 C         0.985851         0.722542         2.298478
 H         0.904097         0.479406         4.991297
 H         0.803796        -2.188086         1.874774
 H         0.201728        -2.429826         3.719021
 H        -1.837129        -1.169467         2.878163
 H        -1.046972        -1.115035         0.177280
 H        -1.909782         0.372191         0.745494
 H         0.058538         0.922428        -1.118668
 H         1.408206         1.849888        -0.476252
 H         2.064779         0.448807         2.360859
 H         0.926067         1.794438         2.669604
