19
Iteration:  1050charge 0 multiplicity 1
 O         0.312844        -0.218373         4.593893
 C         0.272985        -0.381367         3.165728
 C         0.143028        -1.781764         2.763330
 C        -1.030998        -0.805828         2.549137
 C        -0.952382        -0.221698         1.122369
 C         0.482695         0.282952         0.891809
 C         0.907729         0.988239        -0.276703
 O         1.280342        -0.434125        -0.126240
 C         1.018133         0.679760         2.352430
 H         1.256994        -0.082299         4.816672
 H         0.562011        -2.253222         1.847468
 H         0.044620        -2.472747         3.706272
 H        -1.968190        -1.092877         2.951187
 H        -1.165848        -0.969100         0.392248
 H        -1.646993         0.645630         0.998125
 H         0.195571         1.234557        -1.104417
 H         1.896345         1.498925        -0.217358
 H         2.049720         0.545331         2.393944
 H         0.694475         1.678973         2.641366
