19
Iteration:  2353charge 0 multiplicity 1
 O         0.112733         0.123701         4.463246
 C         0.323268        -0.476815         3.233683
 C         0.206287        -1.963693         2.939981
 C        -0.913056        -0.915899         2.526204
 C        -0.981311        -0.288613         1.160069
 C         0.450015         0.281166         0.920172
 C         0.846006         1.180827        -0.161013
 O         1.253996        -0.257716        -0.234627
 C         1.221879         0.317467         2.215674
 H         0.834929        -0.192933         5.041870
 H         0.597627        -2.503269         1.994938
 H        -0.231477        -2.583973         3.735622
 H        -1.916741        -0.944720         3.104902
 H        -1.192547        -0.864334         0.242562
 H        -1.706541         0.532834         1.157905
 H         0.077329         1.460890        -0.974494
 H         1.764153         1.826459         0.020695
 H         2.249025        -0.081981         2.092479
 H         1.320978         1.311887         2.625639
