19
Iteration:  4874
 O         0.198885        -0.040991         4.538415
 C         0.293821        -0.348920         3.164322
 C         0.570888        -1.814842         2.848830
 C        -0.791885        -1.187191         2.588533
 C        -0.917267        -0.551277         1.087924
 C         0.361141         0.276634         0.949400
 C         0.571503         1.128772        -0.290681
 O         1.308844        -0.206963        -0.102863
 C         0.870274         0.707903         2.236023
 H         1.115902         0.030763         4.886173
 H         1.155880        -2.199798         1.966392
 H         0.721896        -2.371439         3.770710
 H        -1.655395        -1.153531         3.226906
 H        -0.987901        -1.215962         0.281392
 H        -1.795189         0.114249         1.186904
 H        -0.244080         1.148428        -1.048997
 H         1.198280         1.973845        -0.262475
 H         1.987177         0.847266         2.168488
 H         0.381035         1.682378         2.565913
