19
Iteration:  4839charge 0 multiplicity 1
 O         0.403424        -0.082793         4.683725
 C         0.348696        -0.379792         3.251392
 C         0.518463        -1.767248         2.766640
 C        -0.821715        -1.200358         2.501417
 C        -1.045398        -0.549386         1.106936
 C         0.260473         0.367066         0.820059
 C         0.692365         1.056392        -0.338942
 O         1.330493        -0.199652        -0.006922
 C         0.807923         0.683515         2.246271
 H        -0.015346         0.784863         4.590496
 H         1.215606        -1.936807         1.976946
 H         0.587649        -2.557211         3.553150
 H        -1.577460        -1.303466         3.254678
 H        -0.968889        -1.254573         0.196605
 H        -1.975261        -0.008000         0.884512
 H        -0.013338         1.100603        -1.224607
 H         1.365973         1.909723        -0.322864
 H         1.829043         1.088108         2.118865
 H         0.194704         1.591051         2.631760
