19
Iteration:  4541charge 0 multiplicity 1
 O         0.183229        -0.116773         4.721003
 C         0.431655        -0.423034         3.245432
 C         0.406652        -1.862000         2.808924
 C        -0.788381        -1.001700         2.557694
 C        -0.979439        -0.385143         1.127981
 C         0.333240         0.317517         0.821664
 C         0.689226         1.026082        -0.370231
 O         1.249711        -0.216735        -0.140559
 C         1.014211         0.587201         2.262588
 H         0.218913         0.855979         4.840396
 H         1.007710        -1.913839         1.904583
 H         0.394573        -2.624339         3.563620
 H        -1.643791        -0.895722         3.235740
 H        -1.056985        -1.170856         0.262629
 H        -1.832057         0.244294         1.049062
 H         0.038855         1.002430        -1.352881
 H         1.368406         1.935340        -0.360742
 H         2.098335         0.583309         2.249530
 H         0.699030         1.627524         2.602209
