19
Iteration:  3903charge 0 multiplicity 1
 O         0.248175         0.121466         4.552692
 C         0.303115        -0.380357         3.263044
 C         0.228067        -1.898661         2.962449
 C        -0.872200        -0.996191         2.474771
 C        -0.858500        -0.564380         1.040060
 C         0.465460         0.294868         0.906207
 C         0.620089         1.207823        -0.247805
 O         1.180402        -0.173596        -0.215491
 C         1.218842         0.394778         2.294644
 H         0.402277        -0.647273         5.187310
 H         0.952509        -2.392767         2.215212
 H        -0.087581        -2.432728         3.871163
 H        -1.801297        -0.967761         2.970444
 H        -0.931491        -1.244236         0.054927
 H        -1.727403         0.213154         1.054664
 H        -0.211260         1.308812        -0.953993
 H         1.296477         2.022318        -0.148059
 H         2.326336         0.177267         2.136435
 H         1.170979         1.536544         2.615378
