19
Iteration:  4813charge 0 multiplicity 1
 O         0.428632        -0.043184         4.531246
 C         0.233951        -0.325625         3.230718
 C         0.530919        -1.795568         2.679391
 C        -0.768898        -1.122335         2.506837
 C        -0.917926        -0.501493         1.151313
 C         0.311155         0.344235         0.892475
 C         0.625781         0.972777        -0.375549
 O         1.277782        -0.248489         0.047791
 C         0.788435         0.775056         2.355245
 H        -0.329569        -0.407427         5.023196
 H         1.345862        -2.006344         1.956738
 H         0.443343        -2.445449         3.510598
 H        -1.654730        -1.618572         2.996930
 H        -1.000785        -1.189997         0.241316
 H        -1.801798         0.166108         1.031092
 H         0.105186         0.867239        -1.300382
 H         1.304787         1.892940        -0.332781
 H         1.835325         1.006710         2.308989
 H         0.323885         1.664730         2.743105
