19
Iteration:  4992charge 0 multiplicity 1
 O         0.367804         0.031600         4.561301
 C         0.246123        -0.343516         3.237453
 C         0.622120        -1.786142         2.905676
 C        -0.834616        -1.252121         2.501415
 C        -0.887876        -0.630188         1.025875
 C         0.325273         0.308215         0.913016
 C         0.493059         1.113710        -0.318415
 O         1.310682        -0.158085        -0.076398
 C         0.843903         0.743935         2.274827
 H        -0.197862        -0.539470         5.108803
 H         1.252543        -2.109122         2.056549
 H         0.868438        -2.393479         3.747007
 H        -1.688418        -1.574761         3.055715
 H        -0.796850        -1.374169         0.104401
 H        -1.840953        -0.039037         1.055266
 H        -0.223453         1.167132        -1.253125
 H         1.185703         1.935540        -0.199722
 H         1.898081         0.807288         2.236007
 H         0.503130         1.729586         2.577453
