19
Iteration:   581
 O         0.451892        -0.170995         4.558977
 C         0.260208        -0.369072         3.192847
 C         0.097095        -1.856038         2.905620
 C        -0.985109        -0.836952         2.458339
 C        -1.010108        -0.305218         1.059224
 C         0.448944         0.309884         0.880898
 C         0.907342         1.008874        -0.240291
 O         1.291167        -0.338066        -0.068346
 C         1.018119         0.574491         2.292871
 H         0.568393         0.809392         4.761437
 H         0.473583        -2.311518         1.975563
 H        -0.114452        -2.568429         3.660867
 H        -1.998091        -0.835742         2.863948
 H        -1.006140        -1.094333         0.375276
 H        -1.880074         0.299987         0.798228
 H         0.206643         1.229432        -1.013358
 H         1.545268         1.897963        -0.113203
 H         2.094243         0.321851         2.239243
 H         0.897954         1.499994         2.734328
