19
Iteration:  3506charge 0 multiplicity 1
 O         0.442203        -0.060123         4.617796
 C         0.222698        -0.336348         3.212652
 C         0.011063        -1.865924         2.996513
 C        -1.012195        -0.859845         2.543041
 C        -0.889238        -0.489974         0.998264
 C         0.482433         0.148078         0.847544
 C         0.696843         1.181423        -0.225791
 O         1.404123        -0.169641        -0.219531
 C         1.133122         0.416777         2.247071
 H        -0.010345         0.829863         4.788836
 H         0.403629        -2.554389         2.285774
 H         0.040724        -2.250265         4.011036
 H        -2.079525        -0.904641         2.893407
 H        -0.984275        -1.318233         0.257434
 H        -1.697867         0.248495         0.772979
 H        -0.143701         1.377290        -0.937764
 H         1.338585         1.985155         0.069010
 H         2.092554        -0.079196         2.199941
 H         1.281815         1.434679         2.576231
