19
Iteration:  1015charge 0 multiplicity 1
 O         0.125594         0.050152         4.540274
 C         0.385861        -0.462861         3.229816
 C         0.223493        -1.934069         2.779096
 C        -0.889882        -0.911630         2.477895
 C        -1.015580        -0.112968         1.148102
 C         0.384528         0.397856         0.938974
 C         0.825526         1.014197        -0.304801
 O         1.284557        -0.365704        -0.058705
 C         1.206105         0.408560         2.267321
 H         0.552908        -0.416979         5.260192
 H         0.822830        -2.344602         1.998574
 H        -0.156817        -2.610665         3.461230
 H        -1.829602        -1.194347         3.072734
 H        -1.408283        -0.886970         0.443566
 H        -1.707518         0.709922         1.140936
 H         0.150050         1.244439        -1.200617
 H         1.631298         1.794857        -0.351409
 H         2.116107         0.107072         1.855823
 H         1.330178         1.286169         2.901303
