19
Iteration:   583charge 0 multiplicity 1
 O         0.447248        -0.167227         4.557457
 C         0.268999        -0.377837         3.178974
 C         0.086059        -1.872287         2.921032
 C        -0.989632        -0.825288         2.456228
 C        -1.003738        -0.306639         1.053033
 C         0.445522         0.312526         0.895109
 C         0.913882         1.036852        -0.250391
 O         1.294541        -0.338214        -0.057676
 C         1.018754         0.564040         2.268376
 H         0.470002         0.789662         4.701946
 H         0.467540        -2.366733         2.015137
 H        -0.050053        -2.552894         3.708096
 H        -1.976197        -0.864822         2.929536
 H        -1.007346        -1.128711         0.326988
 H        -1.867591         0.306059         0.954270
 H         0.117641         1.229923        -1.005575
 H         1.606242         1.844058        -0.135629
 H         2.115520         0.322169         2.195831
 H         0.891725         1.548089         2.769959
