19
Iteration:  3495charge 0 multiplicity 1
 O         0.449594        -0.041582         4.577073
 C         0.286728        -0.393686         3.230352
 C         0.059737        -1.848352         3.024467
 C        -1.054678        -0.808109         2.484621
 C        -0.836068        -0.491934         1.007343
 C         0.463739         0.271208         0.861168
 C         0.767165         1.186543        -0.177567
 O         1.284129        -0.216402        -0.167941
 C         1.106099         0.374797         2.215538
 H        -0.314992         0.438659         4.980096
 H         0.648749        -2.244470         2.220576
 H        -0.163970        -2.432255         3.913344
 H        -2.102950        -0.975875         2.884115
 H        -0.810002        -1.465364         0.473508
 H        -1.678330         0.103356         0.558169
 H         0.024525         1.149580        -1.017063
 H         1.388048         2.028917        -0.261990
 H         2.132538         0.059246         2.154669
 H         1.141814         1.407618         2.521695
