19
Iteration:  4193
 O         0.296019         0.080115         4.616162
 C         0.334808        -0.402054         3.286626
 C         0.300960        -1.894223         2.883576
 C        -0.787048        -1.054213         2.519997
 C        -0.940939        -0.483767         1.073958
 C         0.400088         0.254236         0.817547
 C         0.640423         1.198093        -0.313722
 O         1.233090        -0.227194        -0.222889
 C         1.069299         0.540976         2.293211
 H        -0.534707        -0.120287         5.072891
 H         1.141117        -2.240788         2.226556
 H         0.205976        -2.654375         3.730366
 H        -1.637058        -1.223215         3.172305
 H        -1.022524        -1.359444         0.384481
 H        -1.724986         0.289504         1.229780
 H        -0.081979         1.387486        -1.152958
 H         1.417155         1.893852        -0.109971
 H         2.165644         0.297488         2.305320
 H         0.905172         1.604751         2.829713
