19
Iteration:  3434
 O         0.194209         0.051195         4.513184
 C         0.285787        -0.437423         3.227152
 C         0.338610        -1.832291         2.880072
 C        -0.869114        -0.904252         2.412098
 C        -1.053717        -0.121568         1.143615
 C         0.437066         0.205368         0.925660
 C         0.814976         1.022569        -0.231399
 O         1.283209        -0.357107        -0.200350
 C         1.071598         0.406191         2.323414
 H         0.493657        -0.749471         5.039027
 H         1.062602        -2.344310         2.252790
 H         0.068785        -2.468609         3.809371
 H        -1.768633        -1.164170         2.836599
 H        -1.746901        -0.523793         0.366476
 H        -1.401666         0.880154         1.455202
 H         0.115738         1.078811        -1.080437
 H         1.566976         1.909594        -0.146161
 H         2.161568         0.116448         2.413921
 H         1.011456         1.522078         2.595508
