19
Iteration:   174charge 0 multiplicity 1
 O         0.242356         0.037793         4.468195
 C         0.361339        -0.449785         3.149217
 C         0.128234        -1.964377         2.725035
 C        -0.948821        -0.884318         2.504813
 C        -0.969541        -0.220431         1.173890
 C         0.482294         0.313507         0.955728
 C         0.895036         0.976733        -0.280111
 O         1.249856        -0.377096         0.027669
 C         1.046721         0.558309         2.301114
 H         1.130978         0.061940         4.924912
 H         0.668149        -2.259241         1.815360
 H         0.075803        -2.735398         3.512517
 H        -1.841264        -0.932092         3.184375
 H        -1.442364        -0.739737         0.239123
 H        -1.576730         0.745493         1.211127
 H         0.141132         1.032732        -1.159653
 H         1.594349         1.763579        -0.243089
 H         2.114141         0.407264         2.222947
 H         0.821373         1.548914         2.727838
