19
Iteration:   804charge 0 multiplicity 1
 O         0.201572        -0.030592         4.510285
 C         0.258363        -0.415295         3.244770
 C         0.400909        -1.884495         2.662956
 C        -0.878276        -0.983857         2.387392
 C        -0.969056        -0.000857         1.249630
 C         0.423792         0.384177         0.903220
 C         0.896648         0.875096        -0.334592
 O         1.171741        -0.499440         0.029520
 C         0.978906         0.630213         2.366668
 H         0.832511        -0.517561         5.022520
 H         1.218932        -2.064700         1.878894
 H         0.060251        -2.762409         3.210302
 H        -1.812060        -1.206498         2.860228
 H        -1.581874        -0.388490         0.356919
 H        -1.511871         0.830767         1.626784
 H         0.277207         1.119670        -1.213319
 H         1.858215         1.507914        -0.416578
 H         2.060087         0.500722         2.329304
 H         0.788956         1.620553         2.674462
