19
Iteration:  4803
 O         0.349565        -0.055008         4.554677
 C         0.353326        -0.351404         3.132770
 C         0.541265        -1.724118         2.743492
 C        -0.789835        -1.151946         2.413184
 C        -0.974122        -0.431778         1.146430
 C         0.303382         0.344647         0.942624
 C         0.590353         0.952743        -0.337724
 O         1.331879        -0.290506         0.073445
 C         0.817352         0.797538         2.287768
 H         0.089046        -0.817467         5.092560
 H         1.235319        -1.970285         1.926070
 H         0.526670        -2.429956         3.529679
 H        -1.564127        -1.418744         3.143425
 H        -1.023681        -1.289049         0.347064
 H        -1.874503         0.218155         1.097961
 H        -0.203079         0.894673        -1.051860
 H         1.265870         1.877407        -0.319224
 H         1.843613         0.965339         2.511300
 H         0.216288         1.698333         2.455910
