19
Iteration:  2993
 O         0.445621        -0.115625         4.575409
 C         0.277662        -0.469136         3.232630
 C         0.171214        -1.817247         2.617051
 C        -0.997234        -0.835590         2.470228
 C        -0.977482        -0.184322         1.106968
 C         0.461718         0.327811         0.953010
 C         0.869573         0.878376        -0.397786
 O         1.309221        -0.366817         0.107442
 C         0.858411         0.708736         2.342373
 H         1.234251        -0.561615         4.941877
 H         0.651781        -2.186782         1.673848
 H         0.046384        -2.741675         3.257611
 H        -2.016724        -1.082099         2.947032
 H        -0.902742        -0.893885         0.192913
 H        -1.646065         0.721487         1.183293
 H         0.187179         0.759176        -1.213375
 H         1.782083         1.513364        -0.490163
 H         1.933666         0.798287         2.597537
 H         0.195911         1.514838         2.822085
