19
Iteration:  3647charge 0 multiplicity 1
 O         0.300698        -0.135156         4.642874
 C         0.331816        -0.376786         3.149902
 C         0.255245        -1.857430         2.818698
 C        -0.938926        -0.951469         2.427109
 C        -0.963351        -0.307779         1.070313
 C         0.436777         0.346392         0.919480
 C         0.726724         1.039202        -0.355863
 O         1.277281        -0.309818         0.043390
 C         1.077222         0.564365         2.275859
 H         0.595338         0.819396         4.681532
 H         0.944119        -2.441165         2.229938
 H        -0.079476        -2.391555         3.701450
 H        -1.846473        -1.046145         2.989722
 H        -1.015749        -1.053054         0.258365
 H        -1.874524         0.395585         1.043082
 H        -0.019215         0.894670        -1.107789
 H         1.451911         1.764322        -0.437449
 H         2.170184         0.496017         2.110458
 H         0.829245         1.621097         2.615285
