19
Iteration:  1723
 O         0.299260         0.083052         4.571017
 C         0.255835        -0.455740         3.224869
 C         0.131895        -1.904752         2.964805
 C        -0.960212        -0.897368         2.500404
 C        -0.928696        -0.367593         1.022546
 C         0.407689         0.303850         0.858043
 C         0.978723         1.201555        -0.264367
 O         1.195074        -0.226996        -0.172348
 C         1.125701         0.351112         2.271940
 H         0.230696        -0.698519         5.151749
 H         0.660204        -2.430299         2.179223
 H        -0.052914        -2.601797         3.820752
 H        -1.892009        -1.200362         2.850924
 H        -1.158916        -1.242466         0.397873
 H        -1.794420         0.527855         0.910867
 H         0.239909         1.540558        -0.967252
 H         1.818408         1.845086         0.149933
 H         2.205309        -0.061584         2.147194
 H         1.208871         1.288603         2.758432
