19
Iteration:  1507charge 0 multiplicity 1
 O         0.303834        -0.069834         4.679844
 C         0.245312        -0.404436         3.270450
 C         0.423196        -1.764364         2.588540
 C        -0.895775        -0.952795         2.367670
 C        -1.040377         0.001606         1.164033
 C         0.394742         0.341613         0.916903
 C         0.940740         0.901345        -0.301352
 O         1.175317        -0.562373        -0.053111
 C         0.965610         0.648172         2.383502
 H        -0.073318        -0.839103         5.182647
 H         1.248518        -2.014606         1.873017
 H         0.094404        -2.753535         3.039190
 H        -1.724095        -1.251616         2.919274
 H        -1.435751        -0.568602         0.223679
 H        -1.689774         0.915199         1.247928
 H         0.293412         1.080686        -1.199250
 H         1.979818         1.485759        -0.308775
 H         2.065257         0.552161         2.538790
 H         0.679397         1.675500         2.509173
