19
Iteration:  3588charge 0 multiplicity 1
 O         0.233369         0.130358         4.581440
 C         0.240140        -0.408161         3.252960
 C         0.305336        -1.878855         3.008510
 C        -0.883935        -0.936922         2.496551
 C        -0.899623        -0.396005         1.067279
 C         0.446301         0.202796         0.835109
 C         0.860679         1.171869        -0.155508
 O         1.129235        -0.224198        -0.301910
 C         1.121763         0.340696         2.277392
 H        -0.365445        -0.582953         4.906797
 H         1.053761        -2.259598         2.226394
 H        -0.055422        -2.485440         3.799798
 H        -1.876586        -0.726659         3.009447
 H        -0.970285        -1.169701         0.313636
 H        -1.665530         0.359973         0.862081
 H         0.181395         1.463169        -0.980608
 H         1.660496         2.009352         0.005583
 H         2.098182        -0.161711         2.096791
 H         1.353908         1.341694         2.619389
