19
Iteration:  1699
 O         0.132985         0.117161         4.518792
 C         0.305617        -0.435440         3.210078
 C         0.131254        -1.908070         2.890600
 C        -0.944130        -0.901851         2.546129
 C        -0.964824        -0.319798         1.123798
 C         0.538110         0.163092         0.931418
 C         0.904214         1.153647        -0.092817
 O         1.186948        -0.229732        -0.388216
 C         1.248838         0.382521         2.268107
 H        -0.030937        -0.678441         5.108766
 H         0.922043        -2.168387         2.219073
 H         0.137246        -2.701177         3.678185
 H        -1.792309        -0.979476         3.160391
 H        -1.126675        -1.155572         0.445166
 H        -1.839987         0.509836         1.072480
 H         0.047558         1.599751        -0.557615
 H         1.841580         1.774643         0.149327
 H         2.253806        -0.022882         2.257025
 H         1.340869         1.446180         2.558640
