19
Iteration:  2699
 O         0.267223         0.211642         4.435215
 C         0.292642        -0.463862         3.185234
 C         0.161706        -1.934794         3.075011
 C        -0.925067        -0.936043         2.467190
 C        -1.040389        -0.388509         1.073839
 C         0.383111         0.254603         0.910260
 C         0.841293         1.234570        -0.090790
 O         1.318380        -0.144943        -0.190622
 C         1.223256         0.173377         2.118897
 H        -0.167366        -0.443145         4.963116
 H         0.852093        -2.546781         2.433439
 H        -0.142967        -2.370399         4.084744
 H        -1.869397        -0.962571         2.859664
 H        -1.217672        -1.184824         0.362875
 H        -1.773387         0.302671         0.926110
 H         0.128980         1.564726        -0.898077
 H         1.424817         2.032020         0.532623
 H         2.129317        -0.371889         2.082388
 H         1.538316         1.079825         2.575237
