19
Iteration:  2723charge 0 multiplicity 1
 O         0.226131         0.266487         4.500202
 C         0.279891        -0.456293         3.288304
 C         0.099050        -1.965833         3.006164
 C        -0.922042        -0.996547         2.538667
 C        -0.888105        -0.441664         1.075607
 C         0.533961         0.254445         0.933567
 C         0.809127         1.305474        -0.169575
 O         1.172205        -0.137514        -0.383184
 C         1.266962         0.139585         2.291521
 H        -0.615587        -0.070973         4.902711
 H         0.697137        -2.432162         2.153568
 H        -0.160084        -2.663776         3.803108
 H        -1.862992        -0.939628         2.961438
 H        -1.005892        -1.181024         0.287271
 H        -1.698826         0.282657         0.925518
 H         0.142148         1.796550        -0.899269
 H         1.706360         1.836558         0.091655
 H         2.219903        -0.408336         2.316982
 H         1.565913         1.084954         2.727681
