19
Iteration:  2014charge 0 multiplicity 1
 O         0.014151         0.016753         4.538521
 C         0.329250        -0.372735         3.272262
 C         0.144226        -1.843049         2.940357
 C        -0.913639        -0.844557         2.547610
 C        -0.835535        -0.358768         1.131250
 C         0.578604         0.159037         0.889772
 C         0.806059         1.174525        -0.184823
 O         1.173177        -0.180249        -0.344353
 C         1.275678         0.259481         2.274518
 H         0.731417        -0.309091         5.154599
 H         0.496943        -2.302346         1.964426
 H        -0.161765        -2.462854         3.802937
 H        -1.837970        -1.006963         3.203089
 H        -1.045828        -1.176225         0.379289
 H        -1.515046         0.628386         1.065813
 H        -0.057170         1.497080        -0.636210
 H         1.590267         1.881011        -0.503257
 H         2.225807        -0.201542         2.169226
 H         1.458555         1.410752         2.557999
