19
Iteration:  4526charge 0 multiplicity 1
 O         0.322458        -0.196068         4.539069
 C         0.336412        -0.348603         3.240932
 C         0.424340        -1.781443         2.845366
 C        -0.882071        -0.931790         2.513668
 C        -0.965858        -0.440702         1.118123
 C         0.392790         0.315913         0.950461
 C         0.690072         1.038547        -0.373205
 O         1.267293        -0.275809        -0.085824
 C         0.973368         0.635899         2.291179
 H        -0.082089         0.665501         4.720433
 H         1.141370        -2.153798         2.023640
 H         0.191329        -2.482893         3.698412
 H        -1.739800        -1.387872         3.036354
 H        -1.199617        -1.238076         0.439299
 H        -1.790974         0.366286         1.131671
 H        -0.182405         1.121189        -1.063179
 H         1.390615         1.837095        -0.403130
 H         2.110109         0.708521         2.226376
 H         0.611054         1.676977         2.624801
