19
Iteration:  3958charge 0 multiplicity 1
 O         0.329671         0.064362         4.588831
 C         0.407345        -0.379340         3.255440
 C         0.253933        -1.916988         2.898817
 C        -0.895554        -1.049541         2.612273
 C        -1.042633        -0.424841         1.119919
 C         0.405261         0.180288         0.829386
 C         0.741358         1.164546        -0.237914
 O         1.320273        -0.146878        -0.190474
 C         1.047092         0.474139         2.201359
 H        -0.581370        -0.216173         4.911547
 H         0.952791        -2.339598         2.096227
 H         0.203868        -2.546998         3.749384
 H        -1.869688        -1.172372         3.076092
 H        -1.149469        -1.182539         0.305257
 H        -1.731816         0.427867         0.971533
 H         0.033990         1.249658        -1.082908
 H         1.244511         2.023610         0.065533
 H         2.077498         0.298028         1.805783
 H         0.936436         1.628790         2.302190
