19
Iteration:  1336charge 0 multiplicity 1
 O         0.168134         0.065468         4.518007
 C         0.278943        -0.439420         3.265068
 C         0.199611        -1.889346         2.939598
 C        -0.949826        -1.058835         2.386611
 C        -0.967142        -0.160445         1.186442
 C         0.460318         0.271944         0.881813
 C         0.901163         1.129144        -0.256926
 O         1.258881        -0.255145        -0.183728
 C         1.118713         0.284961         2.259150
 H         1.021094         0.499981         4.653670
 H         1.145088        -2.421994         2.393476
 H        -0.148152        -2.616244         3.735378
 H        -1.854962        -1.236721         2.883149
 H        -1.503552        -0.541734         0.400585
 H        -1.467686         0.804159         1.502159
 H        -0.015523         1.392082        -0.869088
 H         1.681215         1.830404        -0.156308
 H         1.997453        -0.276208         2.216787
 H         1.311168         1.368196         2.666786
