19
Iteration:  1047
 O         0.285045        -0.196421         4.576292
 C         0.279155        -0.352114         3.171479
 C         0.140808        -1.811219         2.760499
 C        -0.987247        -0.844073         2.566854
 C        -0.952214        -0.199759         1.112526
 C         0.474928         0.273678         0.913731
 C         0.920429         1.019487        -0.312182
 O         1.271823        -0.426934        -0.113504
 C         1.025232         0.631335         2.356202
 H         1.222303        -0.089268         4.950802
 H         0.520560        -2.239196         1.877035
 H         0.020272        -2.463525         3.561620
 H        -1.979507        -1.001726         3.105531
 H        -1.288085        -1.056403         0.429360
 H        -1.595958         0.645966         0.957465
 H         0.173627         1.192287        -1.130141
 H         1.846475         1.560120        -0.202715
 H         2.103275         0.574704         2.240767
 H         0.758442         1.659508         2.700984
