19
Iteration:  2977charge 0 multiplicity 1
 O         0.412135        -0.247334         4.587355
 C         0.251263        -0.319216         3.158479
 C         0.169742        -1.763349         2.560080
 C        -0.983636        -0.870778         2.482635
 C        -1.005451        -0.217316         1.106314
 C         0.385477         0.375935         0.951336
 C         0.882973         0.878820        -0.301150
 O         1.354578        -0.499174         0.139000
 C         0.931487         0.777961         2.340663
 H         1.395964        -0.398738         4.726824
 H         0.781352        -1.982782         1.709288
 H         0.150969        -2.443528         3.375551
 H        -1.852610        -1.047324         3.014830
 H        -1.308545        -0.962824         0.416309
 H        -1.744542         0.556303         0.859747
 H         0.048612         0.904233        -1.071599
 H         1.566106         1.728494        -0.202128
 H         2.028480         0.877068         2.222847
 H         0.592912         1.781892         2.481638
