19
Iteration:  2110charge 0 multiplicity 1
 O         0.288629        -0.201083         4.604045
 C         0.342636        -0.345660         3.206132
 C         0.157513        -1.781420         2.796409
 C        -0.969521        -0.782621         2.542465
 C        -0.973942        -0.328383         1.057447
 C         0.460948         0.226731         0.887695
 C         0.844195         1.016383        -0.252542
 O         1.288619        -0.334309        -0.082158
 C         1.020384         0.645530         2.262196
 H         0.717622        -0.905603         5.109038
 H         0.605022        -2.034674         1.821250
 H        -0.067594        -2.567999         3.524862
 H        -1.789875        -0.820385         3.325293
 H        -0.998554        -1.232742         0.391844
 H        -1.698614         0.410284         0.794213
 H         0.362081         1.178289        -1.249503
 H         1.641550         1.877699        -0.218608
 H         2.143837         0.592947         2.350203
 H         0.767361         1.684094         2.529892
