19
Iteration:  1766charge 0 multiplicity 1
 O         0.392079        -0.078409         4.493553
 C         0.243740        -0.454210         3.184571
 C         0.021288        -1.918546         2.804399
 C        -1.059947        -0.813606         2.569927
 C        -0.923162        -0.316511         1.119603
 C         0.548984         0.237292         0.932552
 C         0.767681         1.044953        -0.337333
 O         1.418907        -0.243944        -0.036882
 C         1.016277         0.619050         2.304207
 H         0.634456        -0.823208         5.050033
 H         0.706670        -2.399655         2.072938
 H         0.037334        -2.587212         3.728872
 H        -2.037651        -0.951781         2.946280
 H        -1.186450        -0.949724         0.286946
 H        -1.581206         0.618822         0.913507
 H         0.076855         0.901444        -1.184308
 H         1.567636         1.895900        -0.351845
 H         2.144277         0.460713         2.482618
 H         0.796516         1.639466         2.537696
