19
Iteration:   371
 O         0.346376        -0.019674         4.643184
 C         0.302535        -0.369228         3.222307
 C         0.094961        -1.766077         2.865906
 C        -0.999663        -0.858923         2.551945
 C        -0.942493        -0.364403         1.064173
 C         0.418558         0.203602         0.842283
 C         0.830272         1.057534        -0.304879
 O         1.386100        -0.305102        -0.164804
 C         1.009068         0.507749         2.303756
 H         0.620586        -0.907512         4.937264
 H         0.720248        -2.211696         2.023084
 H        -0.148853        -2.568640         3.565396
 H        -1.877266        -0.977226         3.131849
 H        -1.212005        -1.166958         0.429368
 H        -1.611524         0.493118         0.942719
 H         0.145780         1.360305        -1.158020
 H         1.515289         1.960275        -0.112196
 H         2.050502         0.078026         2.195623
 H         1.029638         1.642563         2.569547
