19
Iteration:   256
 O         0.214924        -0.064896         4.585583
 C         0.366859        -0.361581         3.193393
 C         0.148801        -1.853870         2.868846
 C        -0.873720        -0.794450         2.494172
 C        -0.957253        -0.361894         1.037567
 C         0.465571         0.298781         0.922041
 C         0.856403         1.011207        -0.274079
 O         1.197105        -0.365800        -0.146365
 C         1.069780         0.555470         2.362018
 H         0.846889        -0.619562         5.067847
 H         0.610118        -2.297673         1.942177
 H        -0.030956        -2.525275         3.694821
 H        -1.752913        -0.669366         3.128281
 H        -1.023821        -1.140881         0.314343
 H        -1.615679         0.471698         0.958188
 H         0.302503         1.412253        -1.180038
 H         1.840796         1.587151        -0.310215
 H         2.145752         0.662909         2.194332
 H         0.668320         1.508375         2.639846
