19
Iteration:  3255
 O         0.245018        -0.148202         4.682416
 C         0.254964        -0.418941         3.282361
 C         0.320991        -1.740583         2.782109
 C        -0.933256        -0.920910         2.432045
 C        -0.960554        -0.155739         1.118831
 C         0.517469         0.241274         0.908649
 C         0.892281         1.063882        -0.331131
 O         1.172426        -0.420813        -0.125987
 C         1.039821         0.489229         2.245713
 H         0.239411         0.807642         4.801645
 H         1.016165        -1.994603         2.005698
 H         0.140967        -2.621123         3.432069
 H        -1.750950        -1.278303         3.056419
 H        -1.384047        -0.745996         0.287575
 H        -1.683377         0.616297         1.268619
 H        -0.030271         1.394031        -0.885620
 H         1.767386         1.654301        -0.208499
 H         2.135287         0.458418         2.206473
 H         0.795824         1.525387         2.595350
