19
Iteration:  4337
 O         0.318733         0.026515         4.671076
 C         0.308600        -0.405666         3.168373
 C         0.272520        -1.898094         2.862211
 C        -0.898978        -1.065971         2.588803
 C        -0.906712        -0.471089         1.126462
 C         0.319318         0.357235         0.866416
 C         0.747840         1.137340        -0.344104
 O         1.287362        -0.248605        -0.153847
 C         0.952301         0.583214         2.266680
 H         1.314149         0.214310         4.794344
 H         0.804847        -2.348981         1.963391
 H         0.245486        -2.695382         3.540672
 H        -1.907946        -1.343360         2.973086
 H        -0.794378        -1.268729         0.421547
 H        -1.809063         0.185304         0.930695
 H         0.127164         1.322478        -1.175573
 H         1.448942         1.937450        -0.294212
 H         2.098465         0.481879         2.176035
 H         0.737856         1.652172         2.704923
