19
Iteration:  1069charge 0 multiplicity 1
 O         0.484355        -0.277340         4.648683
 C         0.197528        -0.296984         3.262460
 C         0.099294        -1.763433         2.720765
 C        -1.019166        -0.826775         2.455564
 C        -0.966549        -0.193381         1.020654
 C         0.457334         0.294731         0.955905
 C         0.989122         0.931151        -0.317229
 O         1.268671        -0.437846        -0.060838
 C         0.904311         0.641408         2.345091
 H         1.392657        -0.120046         4.832768
 H         0.783794        -2.048241         1.990749
 H        -0.089444        -2.480999         3.455407
 H        -1.969964        -0.778446         2.999237
 H        -1.203114        -1.032867         0.306261
 H        -1.650895         0.615650         0.845275
 H         0.207874         1.011366        -1.094410
 H         1.682731         1.729876        -0.174988
 H         1.952278         0.861787         2.370013
 H         0.412337         1.655320         2.475535
