19
Iteration:  2868
 O         0.106949        -0.033886         4.632356
 C         0.383816        -0.443705         3.265095
 C         0.218991        -1.861279         2.861865
 C        -0.899258        -0.889891         2.515350
 C        -1.001169        -0.351467         1.174794
 C         0.384186         0.368509         0.902948
 C         0.841446         1.124577        -0.342019
 O         1.316942        -0.302143        -0.227572
 C         1.122067         0.461833         2.248291
 H         0.606575        -0.577378         5.231345
 H         0.882965        -2.137143         2.085329
 H         0.111429        -2.542921         3.666982
 H        -1.723063        -0.924010         3.266024
 H        -1.162926        -1.167366         0.495366
 H        -1.901210         0.343632         1.098750
 H         0.331407         1.343182        -1.276286
 H         1.663093         1.764273        -0.390750
 H         2.210640         0.257952         2.149413
 H         1.097941         1.540622         2.403484
