19
Iteration:  4277
 O         0.311170         0.071636         4.567063
 C         0.316474        -0.408670         3.227255
 C         0.290832        -1.941323         2.972586
 C        -0.878273        -0.985023         2.563397
 C        -0.868198        -0.545875         1.118911
 C         0.447983         0.274904         0.886906
 C         0.599757         1.142788        -0.374890
 O         1.262588        -0.066098        -0.249329
 C         1.094511         0.485749         2.331708
 H        -0.283322        -0.509839         5.061188
 H         0.871961        -2.087687         2.075622
 H         0.049100        -2.558076         3.824362
 H        -1.738748        -1.075271         3.188045
 H        -1.098704        -1.390643         0.334695
 H        -1.736437         0.070024         0.894279
 H        -0.270501         1.034931        -1.051748
 H         1.425596         1.948695        -0.481150
 H         2.122240         0.200051         2.256996
 H         0.956736         1.446779         2.822919
