19
Iteration:  1948
 O         0.404870        -0.004812         4.435129
 C         0.304894        -0.448486         3.197809
 C         0.025883        -1.893870         2.900798
 C        -1.081681        -0.881422         2.605512
 C        -0.953650        -0.409579         1.089024
 C         0.434490         0.262914         0.920589
 C         0.822450         1.118526        -0.211921
 O         1.477650        -0.205669        -0.099697
 C         1.027601         0.472031         2.239230
 H         0.770219        -0.634318         5.055641
 H         0.332735        -2.455969         1.967109
 H        -0.220828        -2.479511         3.791410
 H        -2.106002        -0.836869         3.030235
 H        -1.314748        -1.031378         0.221686
 H        -1.839918         0.404131         0.860077
 H         0.373316         1.333573        -1.094478
 H         1.501699         1.975815        -0.105552
 H         2.041229         0.290413         2.265057
 H         0.900815         1.587832         2.472342
