19
Iteration:  2941charge 0 multiplicity 1
 O         0.215404        -0.222016         4.619763
 C         0.339598        -0.386354         3.230053
 C         0.309634        -1.832680         2.599158
 C        -0.869746        -0.885365         2.515551
 C        -1.053336        -0.153334         1.195621
 C         0.340509         0.414790         0.841145
 C         1.005759         0.900089        -0.399540
 O         1.231523        -0.470664         0.122019
 C         0.923015         0.732760         2.233138
 H         1.150440        -0.376721         4.922566
 H         1.051813        -2.008412         1.824214
 H         0.267563        -2.585739         3.399170
 H        -1.751031        -1.077730         3.226194
 H        -1.348017        -0.874235         0.422650
 H        -1.809354         0.614160         1.278554
 H         0.394547         1.199577        -1.340201
 H         1.845734         1.645220        -0.361097
 H         2.017954         0.834493         2.149651
 H         0.582698         1.647509         2.758519
