19
Iteration:  2987
 O         0.436972        -0.157445         4.594484
 C         0.295564        -0.376046         3.196341
 C         0.158270        -1.815692         2.575104
 C        -1.021378        -0.858983         2.480391
 C        -0.952469        -0.177099         1.109033
 C         0.457624         0.351109         0.974906
 C         0.876793         0.849713        -0.319111
 O         1.299280        -0.396259         0.115767
 C         0.876025         0.705705         2.315924
 H         1.344593        -0.509763         4.824594
 H         0.650692        -2.077681         1.661183
 H         0.057356        -2.610317         3.257506
 H        -1.922559        -1.187051         2.891928
 H        -1.027390        -0.908333         0.342569
 H        -1.709409         0.588008         1.002369
 H         0.256389         0.718185        -1.266230
 H         1.571667         1.665528        -0.489362
 H         1.908063         0.868424         2.604799
 H         0.314848         1.590187         2.551694
