19
Iteration:   576charge 0 multiplicity 1
 O         0.461596        -0.168345         4.576280
 C         0.245371        -0.359534         3.227925
 C         0.114896        -1.807656         2.835012
 C        -0.996747        -0.857597         2.480300
 C        -1.001661        -0.295203         1.067711
 C         0.423992         0.296989         0.889017
 C         0.893990         0.980243        -0.238930
 O         1.294352        -0.344419        -0.095588
 C         1.022363         0.563445         2.335399
 H         0.758110         0.688023         4.832509
 H         0.610993        -2.180481         1.939742
 H        -0.270073        -2.561810         3.602507
 H        -2.027044        -0.818499         2.836407
 H        -1.025649        -1.202210         0.328928
 H        -1.822037         0.323758         0.524663
 H         0.310808         1.192580        -1.183046
 H         1.507395         1.893004        -0.044493
 H         2.089490         0.341871         2.376897
 H         0.859309         1.694058         2.666794
