19
Iteration:  2869
 O         0.104047        -0.031224         4.639682
 C         0.389946        -0.442944         3.254993
 C         0.219558        -1.857177         2.855844
 C        -0.901715        -0.896786         2.508379
 C        -1.004846        -0.343376         1.176345
 C         0.383526         0.371335         0.905207
 C         0.836279         1.111682        -0.345593
 O         1.314700        -0.302148        -0.222194
 C         1.125847         0.461271         2.250117
 H         0.589952        -0.597101         5.251259
 H         0.924394        -2.121025         2.092297
 H         0.134193        -2.516798         3.664154
 H        -1.685565        -0.939182         3.236339
 H        -1.160784        -1.175261         0.468904
 H        -1.914832         0.368897         1.130771
 H         0.373383         1.348930        -1.245091
 H         1.645193         1.757041        -0.382677
 H         2.216533         0.218546         2.148204
 H         1.093726         1.569110         2.414461
