19
Iteration:   232charge 0 multiplicity 1
 O         0.349642        -0.187079         4.702830
 C         0.290010        -0.361419         3.219540
 C         0.046100        -1.792828         2.878747
 C        -1.001676        -0.817605         2.525922
 C        -0.921347        -0.333681         1.104666
 C         0.502594         0.388456         0.812392
 C         0.889246         1.061056        -0.371499
 O         1.274230        -0.431890        -0.128633
 C         0.994429         0.666057         2.258049
 H         0.662334        -1.004998         5.057498
 H         0.810338        -2.253986         2.157720
 H        -0.042194        -2.446336         3.849772
 H        -1.925330        -0.881702         3.032574
 H        -0.653847        -1.288517         0.515320
 H        -1.799351         0.208082         0.765296
 H         0.274153         1.193380        -1.221226
 H         1.776708         1.881518        -0.433899
 H         2.097650         0.575141         2.221395
 H         0.729638         1.625638         2.461450
