19
Iteration:  3843
 O         0.348084         0.011160         4.555530
 C         0.311847        -0.483779         3.240855
 C         0.236795        -1.880528         2.922106
 C        -0.939468        -0.982386         2.482194
 C        -0.888645        -0.458933         1.039003
 C         0.423212         0.298480         0.939994
 C         0.684921         1.122887        -0.215181
 O         1.269326        -0.186408        -0.168962
 C         1.059819         0.497399         2.261844
 H         0.662317         0.962505         4.428345
 H         0.802744        -2.643007         2.382571
 H        -0.082825        -2.388755         3.895652
 H        -1.950839        -1.096127         2.970629
 H        -0.932658        -1.242717         0.332726
 H        -1.752060         0.179008         0.907143
 H        -0.196267         1.305214        -0.910403
 H         1.389350         2.004106        -0.265104
 H         2.123404         0.269776         2.176216
 H         0.907486         1.519124         2.570879
