19
Iteration:  3474charge 0 multiplicity 1
 O         0.358628         0.073837         4.589247
 C         0.341701        -0.399876         3.233113
 C         0.056945        -1.963266         2.856786
 C        -0.892937        -0.850927         2.532777
 C        -0.906361        -0.470549         1.035475
 C         0.396769         0.316284         0.879181
 C         0.865594         1.102413        -0.313371
 O         1.187746        -0.238153        -0.188164
 C         1.151934         0.463398         2.374228
 H        -0.442920        -0.088782         5.073254
 H         0.536782        -2.470777         2.041176
 H        -0.161589        -2.467008         3.775482
 H        -1.869251        -0.837344         3.075029
 H        -0.783362        -1.395416         0.408867
 H        -1.847934        -0.003360         0.766254
 H         0.117242         1.579366        -1.033915
 H         1.685020         1.792414        -0.103811
 H         2.179053         0.183994         2.254736
 H         1.193726         1.397566         2.866589
