19
Iteration:   630charge 0 multiplicity 1
 O         0.253839         0.021683         4.609575
 C         0.323052        -0.405438         3.292389
 C         0.146516        -1.908598         2.824540
 C        -0.965157        -0.904552         2.531125
 C        -0.964983        -0.206758         1.123687
 C         0.499303         0.320223         0.922632
 C         0.819899         1.039549        -0.244121
 O         1.302411        -0.314556        -0.270431
 C         1.158225         0.367165         2.253612
 H        -0.656683         0.051413         4.901683
 H         0.893812        -2.407637         2.195981
 H        -0.054450        -2.680038         3.652688
 H        -1.927104        -0.875682         3.086569
 H        -1.351952        -0.899920         0.254040
 H        -1.448185         0.805947         1.123552
 H        -0.100902         1.249197        -0.924431
 H         1.682299         1.762166        -0.376117
 H         2.188717        -0.010201         2.191735
 H         1.186197         1.495413         2.741891
