19
Iteration:  1230
 O         0.381310         0.034944         4.541743
 C         0.261161        -0.463433         3.221546
 C         0.004368        -1.988815         2.844226
 C        -1.016082        -0.885482         2.515706
 C        -0.961051        -0.259771         1.099426
 C         0.489190         0.342569         0.923680
 C         0.856993         1.066343        -0.349472
 O         1.370655        -0.259412        -0.061731
 C         1.009766         0.486140         2.290406
 H         0.996742        -0.556388         4.979612
 H         0.668156        -2.353219         2.146864
 H        -0.064981        -2.571906         3.726474
 H        -1.928623        -1.035827         3.024126
 H        -1.215910        -0.975125         0.202338
 H        -1.737587         0.550378         1.087198
 H         0.042570         1.020934        -1.198368
 H         1.624532         1.795660        -0.396878
 H         2.168854         0.158974         2.135731
 H         1.190211         1.419525         2.791319
