19
Iteration:  3587
 O         0.232732         0.131245         4.578182
 C         0.237369        -0.407469         3.241499
 C         0.311197        -1.877987         3.011421
 C        -0.896195        -0.937878         2.495244
 C        -0.898382        -0.390854         1.062617
 C         0.447493         0.211794         0.845352
 C         0.854385         1.171893        -0.153934
 O         1.126469        -0.226774        -0.299797
 C         1.126684         0.337547         2.277255
 H        -0.337198        -0.609825         4.946798
 H         1.066807        -2.306350         2.232466
 H        -0.043003        -2.464563         3.832491
 H        -1.846779        -0.711105         3.032118
 H        -0.932663        -1.193074         0.296034
 H        -1.650525         0.328520         0.824435
 H         0.180819         1.474533        -0.977847
 H         1.690735         2.029631        -0.016562
 H         2.088417        -0.189368         2.112901
 H         1.348519         1.317972         2.628473
