19
Iteration:   288charge 0 multiplicity 1
 O         0.151793         0.115346         4.559134
 C         0.249261        -0.429528         3.209538
 C         0.241047        -1.907399         2.798325
 C        -0.899479        -0.975746         2.468973
 C        -1.010017        -0.187320         1.194433
 C         0.396824         0.251592         0.939772
 C         0.814241         1.016697        -0.273329
 O         1.353802        -0.288526        -0.105963
 C         1.138878         0.363350         2.272588
 H         1.129719         0.340078         4.624511
 H         0.876509        -2.098331         1.869234
 H        -0.016049        -2.623641         3.579809
 H        -1.801548        -1.244338         3.049897
 H        -1.668391        -0.598817         0.300380
 H        -1.561273         0.731068         1.541276
 H         0.217264         1.124758        -1.267468
 H         1.681070         1.776201        -0.220498
 H         2.114555        -0.138953         2.133694
 H         1.269921         1.347797         2.541699
