19
Iteration:  3858
 O         0.287776         0.002352         4.548899
 C         0.307981        -0.353563         3.157578
 C         0.159019        -1.936444         3.007761
 C        -0.907141        -1.005221         2.567615
 C        -0.965992        -0.510181         1.122830
 C         0.443778         0.177157         0.835252
 C         0.692767         1.187136        -0.230994
 O         1.314769        -0.114168        -0.235325
 C         1.108662         0.474013         2.252521
 H         0.991413         0.650684         4.785079
 H         0.907519        -2.134680         2.181287
 H        -0.049290        -2.705022         3.909278
 H        -1.829302        -1.081807         3.119151
 H        -1.027256        -1.432658         0.401256
 H        -1.750394         0.292656         0.946147
 H         0.073694         1.346525        -1.072117
 H         1.375022         2.014666         0.082574
 H         2.222025         0.266024         2.282287
 H         0.881922         1.602086         2.514882
