19
Iteration:  2557
 O         0.226179        -0.082815         4.539483
 C         0.312438        -0.369331         3.149713
 C         0.373602        -1.834362         2.719803
 C        -0.872765        -0.983325         2.391476
 C        -1.021817        -0.119479         1.143094
 C         0.412313         0.412975         0.919033
 C         0.973741         0.925614        -0.238551
 O         1.100290        -0.479541         0.016060
 C         0.989740         0.596825         2.340697
 H         1.017052        -0.334506         5.027092
 H         1.112120        -2.113671         1.923839
 H         0.156832        -2.610561         3.496385
 H        -1.839238        -1.282289         2.978886
 H        -1.477309        -0.630355         0.247010
 H        -1.726325         0.785829         1.387008
 H         0.416946         1.170762        -1.095104
 H         1.920922         1.538578        -0.236085
 H         2.081332         0.741888         2.397444
 H         0.604685         1.602130         2.605956
