19
Iteration:  3240charge 0 multiplicity 1
 O         0.218808        -0.050864         4.560382
 C         0.286124        -0.388517         3.223739
 C         0.305078        -1.898400         2.795959
 C        -0.891656        -0.917962         2.419270
 C        -0.964120        -0.187446         1.094531
 C         0.436957         0.280590         0.945102
 C         0.791691         0.995739        -0.180087
 O         1.195464        -0.345901        -0.142420
 C         1.093715         0.463432         2.359261
 H         0.721763         0.807431         4.651553
 H         1.084046        -2.203725         1.995989
 H         0.118643        -2.553886         3.646620
 H        -1.882928        -1.132380         2.819453
 H        -1.323309        -0.682218         0.212715
 H        -1.563907         0.756218         1.077090
 H         0.065113         1.174548        -0.983252
 H         1.652776         1.759417        -0.276694
 H         2.166351         0.154888         2.425964
 H         1.139088         1.513201         2.576264
