19
Iteration:   812charge 0 multiplicity 1
 O         0.205858         0.037868         4.565933
 C         0.231581        -0.402198         3.157617
 C         0.382759        -1.869095         2.663693
 C        -0.831768        -0.990983         2.368711
 C        -1.006744        -0.009295         1.236571
 C         0.394969         0.398446         0.994428
 C         0.947510         0.892560        -0.336721
 O         1.151369        -0.492786        -0.014042
 C         0.998049         0.562791         2.415676
 H         0.811822        -0.606594         4.941496
 H         1.009391        -2.085913         1.685943
 H         0.248532        -2.793134         3.242075
 H        -1.674879        -1.606874         2.837845
 H        -1.441873        -0.539426         0.348913
 H        -1.627679         0.944426         1.506988
 H         0.179077         1.002184        -1.165246
 H         1.904565         1.417342        -0.480339
 H         2.166229         0.383573         2.270617
 H         0.810095         1.603228         2.711853
