19
Iteration:   642charge 0 multiplicity 1
 O         0.257035         0.037939         4.637703
 C         0.246944        -0.415463         3.242883
 C         0.196459        -1.792786         2.834705
 C        -0.962319        -0.896507         2.443089
 C        -0.881928        -0.182438         1.158859
 C         0.543039         0.166237         0.922749
 C         0.817762         1.056445        -0.301213
 O         1.180196        -0.307438        -0.238896
 C         1.216707         0.337036         2.344475
 H        -0.686621        -0.128325         4.935772
 H         0.801816        -2.027982         1.946490
 H        -0.132643        -2.566072         3.555724
 H        -1.883446        -1.153554         2.969580
 H        -1.141509        -0.860100         0.259036
 H        -1.697283         0.619499         1.106320
 H         0.028455         1.267287        -1.078681
 H         1.517070         1.928351        -0.073184
 H         2.215745        -0.117832         2.334510
 H         1.375103         1.504738         2.639880
