19
Iteration:  3384
 O         0.200689        -0.260134         4.537192
 C         0.387073        -0.415178         3.147477
 C         0.270038        -1.833382         2.723871
 C        -0.919056        -0.780945         2.535251
 C        -1.034757        -0.164379         1.115080
 C         0.377806         0.386183         0.887976
 C         0.926628         0.896765        -0.306073
 O         1.188442        -0.499043         0.008489
 C         1.086925         0.757239         2.340704
 H         1.007485         0.239417         4.788010
 H         0.754529        -2.127141         1.799270
 H         0.077485        -2.610474         3.508009
 H        -1.680292        -0.857983         3.360914
 H        -1.094102        -1.052914         0.529887
 H        -1.870705         0.508294         0.794216
 H         0.241421         1.300405        -1.071880
 H         1.774861         1.561888        -0.198923
 H         2.171659         0.762047         2.369263
 H         0.755075         1.678117         2.783541
