19
Iteration:  2562
 O         0.243641        -0.038734         4.515522
 C         0.292170        -0.401314         3.200595
 C         0.364267        -1.888542         2.711389
 C        -0.886375        -0.965018         2.392346
 C        -1.005902        -0.131674         1.138325
 C         0.406954         0.378176         0.963613
 C         0.964004         0.970562        -0.229993
 O         1.119608        -0.473408         0.018186
 C         0.978821         0.609421         2.280509
 H         1.063158        -0.335526         5.000640
 H         1.110061        -2.075317         1.972844
 H         0.122843        -2.608543         3.479154
 H        -1.805341        -1.296421         2.718266
 H        -1.494333        -0.592399         0.300431
 H        -1.553908         0.764547         1.379496
 H         0.233601         1.212293        -1.074163
 H         1.957846         1.362737        -0.238320
 H         2.070283         0.745329         2.418143
 H         0.614276         1.576915         2.746953
