19
Iteration:  4242
 O         0.305926         0.159544         4.572987
 C         0.322423        -0.386859         3.197494
 C         0.343066        -1.890868         2.971894
 C        -0.818812        -1.105518         2.448196
 C        -0.956995        -0.523532         1.062705
 C         0.416102         0.217823         0.913366
 C         0.667242         1.199100        -0.176407
 O         1.162241        -0.149801        -0.168962
 C         1.139944         0.463729         2.199964
 H        -0.573592        -0.118167         4.870667
 H         1.032430        -2.412559         2.283336
 H         0.118099        -2.593693         3.702608
 H        -1.778980        -1.323908         2.966888
 H        -1.114781        -1.243918         0.268139
 H        -1.720737         0.266841         1.218752
 H        -0.053081         1.369217        -0.943949
 H         1.483132         2.021523        -0.168798
 H         2.186243         0.220999         2.067377
 H         1.085884         1.405880         2.585268
