19
Iteration:  4670
 O         0.271337        -0.076446         4.640489
 C         0.352386        -0.388271         3.225710
 C         0.421122        -1.893355         2.891195
 C        -0.846346        -1.031895         2.467457
 C        -0.973755        -0.521482         1.036660
 C         0.401325         0.221805         0.925296
 C         0.566494         1.085167        -0.358310
 O         1.316563        -0.172055        -0.103654
 C         0.956563         0.748766         2.308429
 H         1.105348         0.320586         4.948011
 H         1.013925        -2.292951         2.059363
 H         0.361268        -2.601077         3.792133
 H        -1.714107        -1.065549         3.119986
 H        -0.992935        -1.241363         0.184887
 H        -1.793573         0.238502         0.836137
 H        -0.248951         0.909357        -1.128160
 H         1.106010         1.982762        -0.340104
 H         2.039335         0.697087         2.152122
 H         0.690184         1.802453         2.556923
