19
Iteration:  3442charge 0 multiplicity 1
 O         0.205046         0.038681         4.488194
 C         0.306446        -0.420700         3.196447
 C         0.274883        -1.829596         2.912457
 C        -0.880682        -0.922912         2.459075
 C        -0.982338        -0.142560         1.174271
 C         0.432212         0.186922         0.858446
 C         0.841542         1.010682        -0.255523
 O         1.270683        -0.290410        -0.188686
 C         1.094604         0.386951         2.307496
 H         0.164121        -0.644774         5.194078
 H         0.972984        -2.282172         2.224107
 H         0.021884        -2.438778         3.756401
 H        -1.744805        -1.128776         3.099283
 H        -1.593633        -0.684635         0.412482
 H        -1.500578         0.745356         1.397446
 H        -0.062858         1.313843        -0.902576
 H         1.639462         1.749022        -0.049400
 H         2.152247         0.222390         2.343240
 H         0.809206         1.376981         2.611727
