19
Iteration:   902
 O         0.429552        -0.023554         4.614994
 C         0.327311        -0.502115         3.243626
 C        -0.071466        -1.868033         2.829360
 C        -1.039871        -0.837435         2.435586
 C        -0.943805        -0.268969         1.079170
 C         0.523671         0.233328         0.922199
 C         0.704929         1.037439        -0.302689
 O         1.412189        -0.223405        -0.048804
 C         1.045636         0.469498         2.299115
 H         1.357620         0.134467         4.667263
 H         0.465789        -2.350158         2.002609
 H        -0.360695        -2.574731         3.694419
 H        -1.955802        -0.782066         2.917546
 H        -0.968788        -1.198074         0.336067
 H        -1.665997         0.433637         0.643647
 H        -0.001846         0.940842        -1.161526
 H         1.543077         1.820729        -0.486913
 H         2.197616         0.354645         2.200867
 H         0.875013         1.433910         2.783022
