19
Iteration:  1242charge 0 multiplicity 1
 O         0.411329        -0.054799         4.622862
 C         0.186389        -0.402758         3.244910
 C         0.070901        -1.877552         2.912081
 C        -1.042383        -0.889833         2.493925
 C        -0.917394        -0.254066         1.036210
 C         0.444457         0.304043         0.872409
 C         0.802591         1.036638        -0.331441
 O         1.378678        -0.247496        -0.116552
 C         1.090455         0.469591         2.291198
 H         0.987435        -0.753586         5.060037
 H         0.588243        -2.367078         2.207425
 H        -0.272265        -2.474179         3.750966
 H        -2.014407        -0.863767         2.905795
 H        -1.084407        -1.095872         0.203496
 H        -1.659733         0.557090         0.857641
 H         0.121530         1.183915        -1.249363
 H         1.447385         1.882610        -0.197960
 H         2.196981        -0.000592         2.367015
 H         0.940505         1.565088         2.488447
