19
Iteration:   714
 O         0.445869        -0.022349         4.500389
 C         0.298760        -0.452593         3.230268
 C         0.068332        -1.883357         2.854438
 C        -1.057912        -0.925340         2.484962
 C        -1.024902        -0.173802         1.109360
 C         0.398550         0.294960         0.912013
 C         0.912972         0.977001        -0.268459
 O         1.414302        -0.316537        -0.046923
 C         0.988387         0.527226         2.235158
 H         0.792421        -0.719546         5.100949
 H         0.586471        -2.420205         2.050001
 H        -0.169599        -2.416946         3.839239
 H        -2.106969        -0.946503         2.936412
 H        -1.360829        -0.779457         0.252475
 H        -1.708925         0.657313         1.147220
 H         0.413822         1.252243        -1.225805
 H         1.594769         1.789568        -0.189618
 H         2.105586         0.620789         2.307229
 H         0.596464         1.438972         2.556061
