19
Iteration:  2547charge 0 multiplicity 1
 O         0.157049        -0.175046         4.589032
 C         0.338515        -0.410791         3.185446
 C         0.392004        -1.733891         2.691368
 C        -0.858439        -0.971981         2.430828
 C        -1.066795        -0.086358         1.157006
 C         0.354874         0.389248         0.948727
 C         1.048174         0.903834        -0.385213
 O         1.105190        -0.490555         0.006457
 C         1.015159         0.692976         2.339886
 H         1.052314        -0.440698         4.919741
 H         0.993480        -2.137735         1.845563
 H         0.309078        -2.490633         3.535194
 H        -1.619672        -1.077041         3.270663
 H        -1.230703        -0.675566         0.206036
 H        -1.983047         0.627617         1.397561
 H         0.488482         1.084632        -1.241955
 H         1.832242         1.588705        -0.066246
 H         2.112138         0.467926         2.304422
 H         0.662095         1.722961         2.609198
