19
Iteration:  2130charge 0 multiplicity 1
 O         0.268198        -0.189857         4.633023
 C         0.268851        -0.350748         3.186013
 C         0.177098        -1.827370         2.661928
 C        -0.983108        -0.854209         2.532708
 C        -0.959435        -0.240148         1.175587
 C         0.440960         0.434940         0.902915
 C         0.840392         0.894646        -0.408344
 O         1.364801        -0.369352        -0.022672
 C         1.020331         0.641188         2.351435
 H         0.981869        -0.814075         4.970044
 H         0.801749        -2.141304         1.833198
 H         0.192516        -2.421043         3.541332
 H        -2.049667        -0.941669         2.947663
 H        -1.092468        -1.081393         0.475375
 H        -1.666876         0.591592         1.273885
 H        -0.010615         0.997806        -1.196520
 H         1.609357         1.717782        -0.666702
 H         2.143109         0.540575         2.179060
 H         0.807938         1.542846         2.779464
