19
Iteration:  3530
 O         0.263092         0.024253         4.536971
 C         0.335407        -0.490298         3.257674
 C         0.023571        -1.883191         3.053071
 C        -1.007721        -0.823407         2.580130
 C        -0.948607        -0.432024         1.095240
 C         0.476253         0.113624         0.858459
 C         0.711354         1.171796        -0.226996
 O         1.468929        -0.072197        -0.297457
 C         1.170356         0.314402         2.232421
 H         0.879823         0.767281         4.603009
 H         0.594910        -2.390457         2.291195
 H        -0.185590        -2.645315         3.872801
 H        -1.986367        -0.897046         2.962023
 H        -1.160009        -1.304794         0.398986
 H        -1.661501         0.314415         0.866632
 H        -0.187972         1.032676        -0.854021
 H         1.225138         2.217563        -0.193656
 H         2.230802         0.196669         2.068892
 H         0.925876         1.252366         2.671838
