19
Iteration:  2318charge 0 multiplicity 1
 O         0.285383         0.003380         4.629918
 C         0.243866        -0.374831         3.221554
 C         0.147841        -1.826967         2.922272
 C        -1.036064        -0.879240         2.487667
 C        -0.944125        -0.404325         1.051711
 C         0.483817         0.236319         0.904626
 C         0.916134         1.120691        -0.177404
 O         1.216007        -0.243470        -0.332984
 C         1.137025         0.430274         2.339598
 H         1.185661        -0.073213         4.979760
 H         0.498162        -2.399431         2.007248
 H        -0.246948        -2.622781         3.622794
 H        -1.983297        -1.184273         2.914300
 H        -0.859616        -1.287312         0.409941
 H        -1.836761         0.157777         0.956084
 H         0.294008         1.671666        -0.860218
 H         1.854380         1.739723         0.044468
 H         2.249357         0.137366         2.227208
 H         0.942219         1.509365         2.665996
