19
Iteration:   814charge 0 multiplicity 1
 O         0.206767         0.050674         4.586097
 C         0.232604        -0.414925         3.148022
 C         0.375742        -1.854772         2.653734
 C        -0.830504        -0.998058         2.376822
 C        -1.032481        -0.016135         1.221935
 C         0.402407         0.405480         1.019794
 C         0.956813         0.891629        -0.338854
 O         1.140226        -0.488107        -0.022255
 C         1.018147         0.555547         2.398728
 H         0.779893        -0.594400         4.952101
 H         0.993436        -2.063852         1.664872
 H         0.285634        -2.742621         3.288978
 H        -1.605356        -1.608283         2.800062
 H        -1.431006        -0.570595         0.277708
 H        -1.620143         0.875991         1.467318
 H         0.152876         0.968729        -1.123222
 H         1.964403         1.460931        -0.457322
 H         2.131674         0.353184         2.329261
 H         0.820385         1.522549         2.746553
