19
Iteration:  1459charge 0 multiplicity 1
 O         0.429702        -0.098528         4.458129
 C         0.330487        -0.405125         3.089833
 C         0.077149        -1.884151         2.659609
 C        -0.979409        -0.795863         2.543724
 C        -1.007515        -0.256209         1.139970
 C         0.410425         0.376356         0.939674
 C         0.956699         0.928593        -0.253787
 O         1.319902        -0.409741         0.106260
 C         0.977038         0.690767         2.287008
 H         0.122900        -0.871595         4.944260
 H         0.479103        -2.404297         1.834341
 H         0.214740        -2.498455         3.529069
 H        -1.967599        -1.036644         3.083368
 H        -1.242708        -1.018828         0.419816
 H        -1.844231         0.407586         1.059383
 H         0.201032         1.065713        -1.060563
 H         1.701682         1.731225        -0.088779
 H         2.131177         0.762962         2.307931
 H         0.549120         1.568312         2.792387
