19
Iteration:  2339
 O         0.191870         0.128321         4.580650
 C         0.323448        -0.459003         3.239562
 C         0.113425        -1.937717         2.888034
 C        -0.870721        -0.883644         2.487834
 C        -0.923715        -0.326917         1.030753
 C         0.481458         0.212972         0.844254
 C         0.902393         1.186224        -0.121868
 O         1.158591        -0.255711        -0.235365
 C         1.090750         0.313656         2.270839
 H         1.000251        -0.062007         5.070024
 H         0.969251        -2.229392         2.235600
 H         0.016333        -2.744003         3.640837
 H        -1.747929        -0.815193         3.096890
 H        -1.128295        -1.202888         0.449631
 H        -1.640024         0.495718         0.965887
 H         0.175488         1.610121        -0.745816
 H         1.784403         1.793298         0.101705
 H         2.130461        -0.115486         2.192077
 H         0.924581         1.469540         2.511354
