19
Iteration:  2326
 O         0.255292         0.068394         4.611960
 C         0.273414        -0.440407         3.321127
 C         0.148926        -1.862139         2.870970
 C        -1.005158        -0.864896         2.482254
 C        -0.932030        -0.422360         1.043020
 C         0.451162         0.198992         0.930213
 C         0.939059         1.159542        -0.142725
 O         1.163462        -0.239853        -0.321698
 C         1.156534         0.368616         2.277643
 H         1.160855        -0.040435         4.984698
 H         0.804367        -2.241832         2.120369
 H        -0.316878        -2.495280         3.616285
 H        -1.917492        -1.151900         2.891587
 H        -1.040206        -1.128023         0.210597
 H        -1.759699         0.295666         0.720531
 H         0.370137         1.603727        -0.925819
 H         1.786102         1.758272         0.079164
 H         2.280417         0.409153         2.345629
 H         1.047326         1.511209         2.643426
