19
Iteration:  2407
 O         0.158695        -0.007046         4.642395
 C         0.282702        -0.479690         3.315768
 C         0.106606        -1.869379         2.832768
 C        -0.894214        -0.839892         2.462306
 C        -0.956478        -0.253547         1.107022
 C         0.546243         0.250365         0.903868
 C         0.787465         1.060951        -0.295400
 O         1.242147        -0.269226        -0.273347
 C         1.203700         0.428888         2.344975
 H         1.030987        -0.160268         5.021607
 H         1.006681        -2.294897         2.200174
 H        -0.144414        -2.607188         3.618405
 H        -1.975411        -0.856490         2.903608
 H        -0.912376        -0.934291         0.283404
 H        -1.664144         0.499812         0.962029
 H        -0.093482         1.332474        -0.939020
 H         1.649371         1.784831        -0.295221
 H         2.263538         0.092972         2.246061
 H         1.012817         1.416613         2.759830
