19
Iteration:  4271charge 0 multiplicity 1
 O         0.327070         0.090439         4.534549
 C         0.254128        -0.446869         3.267513
 C         0.336149        -1.907595         3.001459
 C        -0.836128        -0.958779         2.527713
 C        -0.885030        -0.555695         1.102629
 C         0.425644         0.375160         0.877883
 C         0.618771         1.138499        -0.331004
 O         1.258764        -0.114757        -0.277514
 C         1.066497         0.439040         2.347888
 H        -0.369945        -0.390070         4.979701
 H         0.853988        -2.354652         2.122993
 H         0.166767        -2.790037         3.711289
 H        -1.788765        -1.047582         3.107473
 H        -0.937811        -1.356934         0.384285
 H        -1.812095         0.083100         1.053611
 H        -0.193506         1.113097        -1.085204
 H         1.215553         1.976900        -0.478246
 H         2.166732         0.182661         2.276150
 H         1.080047         1.406985         3.003870
