19
Iteration:  3968charge 0 multiplicity 1
 O         0.359115         0.004588         4.565837
 C         0.302574        -0.405503         3.189672
 C         0.327455        -1.879178         2.906736
 C        -0.927288        -0.961567         2.564687
 C        -1.004197        -0.431409         1.146242
 C         0.307585         0.243629         0.909521
 C         0.719286         1.138983        -0.188109
 O         1.380583        -0.223180        -0.200714
 C         1.065162         0.524445         2.115384
 H        -0.532789         0.005398         4.968019
 H         0.973289        -2.371550         2.060380
 H         0.141927        -2.542848         3.740299
 H        -1.727663        -1.266876         3.190451
 H        -1.171343        -1.138998         0.371774
 H        -1.873086         0.183431         1.103165
 H         0.056591         1.354014        -1.054916
 H         1.342233         1.963393         0.083484
 H         2.161470         0.395523         2.207885
 H         0.825533         1.590321         2.476471
