19
Iteration:   106
 O         0.124026        -0.036020         4.572182
 C         0.295425        -0.404536         3.223103
 C         0.337465        -1.812138         2.671732
 C        -0.896535        -0.900537         2.515707
 C        -0.981760        -0.104854         1.192358
 C         0.475701         0.336842         0.975539
 C         0.933344         0.882220        -0.292201
 O         1.168687        -0.469666        -0.154327
 C         1.092347         0.592406         2.335221
 H         0.557498        -0.726115         5.102200
 H         0.905879        -1.946600         1.777055
 H         0.312198        -2.617132         3.377176
 H        -1.767180        -1.010972         3.124441
 H        -1.504881        -0.630131         0.315667
 H        -1.704109         0.818460         1.418384
 H         0.026655         1.050374        -1.038396
 H         1.790757         1.557706        -0.521621
 H         2.138572         0.265403         2.339779
 H         0.990068         1.678149         2.685440
