19
Iteration:  2071charge 0 multiplicity 1
 O         0.320415         0.115158         4.514454
 C         0.228906        -0.460740         3.223989
 C         0.094484        -1.962200         2.909386
 C        -1.026817        -1.030341         2.535789
 C        -0.944490        -0.302547         1.110771
 C         0.435961         0.296633         0.927630
 C         0.910986         1.164378        -0.278146
 O         1.300039        -0.207757        -0.189627
 C         1.087388         0.396048         2.315869
 H         1.098852        -0.401419         4.769176
 H         0.828073        -2.391897         2.198120
 H        -0.143975        -2.691441         3.728997
 H        -1.922996        -0.985074         3.084085
 H        -1.174659        -0.974756         0.246315
 H        -1.805179         0.417200         0.839722
 H         0.336804         1.346162        -1.142024
 H         1.727747         1.809337        -0.119375
 H         2.114950         0.153122         2.169478
 H         1.078933         1.417928         2.806750
