19
Iteration:  2348charge 0 multiplicity 1
 O         0.140238         0.131229         4.507832
 C         0.312627        -0.444963         3.217385
 C         0.194950        -1.989435         2.930358
 C        -0.887062        -0.887397         2.502787
 C        -0.936006        -0.272676         1.117111
 C         0.458181         0.216908         0.899245
 C         0.858058         1.202952        -0.150648
 O         1.230752        -0.272520        -0.229747
 C         1.130056         0.296318         2.225019
 H         0.861559        -0.121787         5.097328
 H         0.612618        -2.370894         2.054269
 H        -0.140756        -2.685650         3.697072
 H        -1.732025        -0.840620         3.095820
 H        -1.192759        -0.936727         0.278729
 H        -1.857592         0.364246         1.159500
 H         0.167547         1.650740        -0.804225
 H         1.715310         1.808927        -0.020475
 H         2.200483         0.044374         2.087368
 H         1.360249         1.315456         2.725867
