19
Iteration:  1888charge 0 multiplicity 1
 O         0.150823        -0.212378         4.554198
 C         0.250957        -0.294582         3.211260
 C         0.314628        -1.831110         2.730675
 C        -0.868864        -0.921363         2.489074
 C        -1.029077        -0.144733         1.137974
 C         0.432876         0.457118         0.949911
 C         0.895683         0.936265        -0.350418
 O         1.198249        -0.465152        -0.052558
 C         1.119480         0.648674         2.353747
 H         0.989029        -0.439612         4.942863
 H         0.936889        -2.143037         1.870323
 H         0.303706        -2.583647         3.520031
 H        -1.875179        -1.125421         2.973937
 H        -1.246633        -0.788479         0.254111
 H        -1.772280         0.564016         1.353939
 H         0.115891         0.916003        -1.229306
 H         1.854214         1.472144        -0.298466
 H         2.305703         0.495536         2.489670
 H         0.911392         1.690888         2.555592
