19
Iteration:  1355charge 0 multiplicity 1
 O         0.078755         0.056461         4.550482
 C         0.270011        -0.425880         3.242446
 C         0.231725        -2.008201         2.829955
 C        -0.942516        -0.909340         2.541427
 C        -0.962898        -0.212412         1.153638
 C         0.467438         0.289762         0.928752
 C         0.881227         1.133245        -0.203516
 O         1.208687        -0.316651        -0.276231
 C         1.232503         0.337416         2.282059
 H         0.903407         0.565905         4.763330
 H         0.879086        -2.259822         1.936286
 H         0.166554        -2.688446         3.680748
 H        -1.798682        -1.105668         3.167095
 H        -1.300365        -0.814658         0.269165
 H        -1.607712         0.678301         1.369753
 H         0.355999         1.482151        -1.027124
 H         1.820066         1.720230        -0.148021
 H         2.279542         0.090080         2.405945
 H         1.066607         1.459667         2.615691
