19
Iteration:  2584charge 0 multiplicity 1
 O         0.292329         0.098329         4.568193
 C         0.299796        -0.441523         3.221425
 C         0.234690        -1.961400         2.691634
 C        -0.943248        -1.008603         2.436492
 C        -1.006729        -0.152859         1.146791
 C         0.440725         0.341806         0.926035
 C         0.871875         1.015260        -0.273257
 O         1.284975        -0.376623        -0.046875
 C         0.984231         0.474987         2.331191
 H         1.078107        -0.117586         5.062944
 H         0.916595        -2.185362         1.884774
 H        -0.109643        -2.747601         3.325604
 H        -1.799379        -1.194173         3.014553
 H        -1.406533        -0.718556         0.309830
 H        -1.663191         0.731327         1.244227
 H         0.202549         1.014488        -1.184724
 H         1.612533         1.801457        -0.111146
 H         2.104024         0.534940         2.441761
 H         0.757320         1.544532         2.631926
