19
Iteration:   239
 O         0.299082        -0.173646         4.668816
 C         0.354691        -0.406144         3.260529
 C         0.087221        -1.818612         2.882056
 C        -0.974099        -0.779225         2.511074
 C        -0.862752        -0.347003         1.064521
 C         0.467752         0.347488         0.855909
 C         0.945520         1.015535        -0.346624
 O         1.183216        -0.398880        -0.142654
 C         1.038309         0.717169         2.237054
 H         0.654736        -0.982164         5.040462
 H         0.729498        -2.272460         2.163149
 H        -0.284612        -2.306583         3.792496
 H        -1.954867        -0.902798         3.030060
 H        -0.789734        -1.324866         0.456187
 H        -1.842565         0.129293         0.756948
 H         0.173255         1.248784        -1.100958
 H         1.643587         1.836879        -0.306159
 H         2.118452         0.622998         2.370462
 H         0.663759         1.785087         2.528414
