19
Iteration:  3740
 O         0.427130        -0.013447         4.566732
 C         0.274469        -0.480042         3.151797
 C         0.495151        -1.833391         2.693781
 C        -0.937157        -1.030542         2.409905
 C        -1.046520        -0.246725         1.072111
 C         0.320470         0.467148         0.972502
 C         0.936786         0.887556        -0.416341
 O         1.115091        -0.397022         0.179886
 C         0.913107         0.764416         2.326629
 H        -0.045720        -0.709105         5.006527
 H         1.122869        -1.940455         1.874988
 H         0.284686        -2.742297         3.363350
 H        -1.759619        -1.468696         3.031417
 H        -1.287242        -0.630888         0.010186
 H        -1.730363         0.570952         1.366851
 H         0.161892         0.768115        -1.221087
 H         1.872393         1.535736        -0.407187
 H         2.003829         0.730883         2.188409
 H         0.733214         1.540145         3.046503
