19
Iteration:  2209charge 0 multiplicity 1
 O         0.221078        -0.191795         4.612121
 C         0.356456        -0.355625         3.238011
 C         0.381845        -1.717036         2.656123
 C        -0.857802        -0.902471         2.480263
 C        -1.080815        -0.119354         1.156983
 C         0.351377         0.380493         0.877958
 C         1.103008         0.950904        -0.282321
 O         1.069252        -0.547528        -0.015989
 C         0.930230         0.638712         2.278801
 H         1.033162        -0.483286         5.130062
 H         1.038402        -1.922496         1.780477
 H         0.118781        -2.548167         3.384325
 H        -1.686889        -1.139168         3.086628
 H        -1.311799        -0.741874         0.301485
 H        -1.942211         0.460592         1.148564
 H         0.589347         1.339606        -1.194470
 H         2.062950         1.577399         0.060153
 H         1.995644         0.595716         2.161439
 H         0.740134         1.598795         2.461226
