19
Iteration:    67
 O         0.437877        -0.072909         4.503929
 C         0.328806        -0.429407         3.140472
 C         0.092711        -1.942442         2.786691
 C        -0.955997        -0.853197         2.428124
 C        -1.063118        -0.193427         1.052715
 C         0.326457         0.419987         0.968589
 C         0.892328         0.892367        -0.343254
 O         1.389481        -0.341989         0.135360
 C         0.951601         0.630799         2.306185
 H         1.090258        -0.658097         4.947041
 H         0.747218        -2.564814         2.120081
 H        -0.217125        -2.542102         3.630784
 H        -1.890269        -0.913092         3.036344
 H        -1.260448        -0.845922         0.231631
 H        -1.694692         0.613772         1.112650
 H         0.168670         0.873480        -1.112306
 H         1.618807         1.649721        -0.413463
 H         2.029048         0.559664         2.149465
 H         0.808436         1.596654         2.722600
