19
Iteration:  2983charge 0 multiplicity 1
 O         0.431804        -0.188718         4.600835
 C         0.290287        -0.337477         3.168012
 C         0.152047        -1.802992         2.559183
 C        -1.006890        -0.871823         2.480392
 C        -0.945584        -0.178556         1.117877
 C         0.435983         0.372307         0.976444
 C         0.877676         0.850911        -0.302423
 O         1.313188        -0.436014         0.123922
 C         0.892999         0.708244         2.326736
 H         1.337792        -0.461570         4.756580
 H         0.716597        -1.996730         1.632010
 H         0.056106        -2.561828         3.356545
 H        -1.982243        -1.220503         2.961128
 H        -1.242251        -0.969985         0.349000
 H        -1.760622         0.524306         0.841322
 H         0.239884         0.775269        -1.182230
 H         1.497718         1.757254        -0.413775
 H         1.961394         0.938428         2.494603
 H         0.408589         1.742291         2.431450
