19
Iteration:  1701
 O         0.143766         0.108658         4.514680
 C         0.297801        -0.432771         3.206416
 C         0.133377        -1.895248         2.887813
 C        -0.958808        -0.913423         2.551881
 C        -0.956212        -0.331523         1.130423
 C         0.537884         0.177104         0.943017
 C         0.912638         1.166128        -0.099221
 O         1.187955        -0.229565        -0.387322
 C         1.220986         0.382892         2.264174
 H        -0.019521        -0.657354         5.098697
 H         0.938036        -2.170847         2.251770
 H         0.133476        -2.709181         3.670453
 H        -1.775531        -0.893849         3.182822
 H        -1.031846        -1.168585         0.425563
 H        -1.893978         0.525479         1.142508
 H         0.080562         1.565779        -0.640937
 H         1.878423         1.717426         0.152865
 H         2.300755        -0.085482         2.263633
 H         1.330014         1.406344         2.509496
