19
Iteration:  1062
 O         0.433532        -0.274466         4.627866
 C         0.220286        -0.333002         3.247529
 C         0.120184        -1.767530         2.732790
 C        -1.065819        -0.774642         2.460248
 C        -0.952359        -0.234399         1.072951
 C         0.474308         0.297358         1.000427
 C         0.971778         0.926845        -0.301549
 O         1.269942        -0.448536        -0.112607
 C         0.939121         0.673004         2.300283
 H         1.356476        -0.091477         4.760174
 H         0.861265        -2.162570         1.939433
 H         0.001433        -2.479613         3.702356
 H        -2.017456        -0.916707         2.900143
 H        -1.150281        -0.901451         0.290435
 H        -1.741036         0.574287         0.952354
 H         0.204506         1.175404        -1.074813
 H         1.705274         1.815943        -0.166257
 H         1.979588         0.835552         2.575012
 H         0.561369         1.677147         2.451410
