19
Iteration:  2036charge 0 multiplicity 1
 O         0.043085         0.040968         4.531851
 C         0.321396        -0.471195         3.246944
 C         0.142443        -1.955120         2.945589
 C        -0.901748        -0.847805         2.440431
 C        -0.923736        -0.269626         1.109475
 C         0.470813         0.213886         0.906624
 C         0.725064         1.139500        -0.169598
 O         1.251472        -0.225066        -0.264624
 C         1.335793         0.298139         2.262628
 H         0.840116         0.153323         5.055301
 H         0.961556        -2.383821         2.276888
 H        -0.230561        -2.477203         3.867652
 H        -1.607837        -0.627762         3.290766
 H        -1.019451        -1.027320         0.310926
 H        -1.556303         0.706977         1.110920
 H         0.081586         1.468468        -0.884512
 H         1.481130         1.947085         0.004687
 H         2.261095        -0.165552         2.074105
 H         1.529178         1.479344         2.426894
