19
Iteration:  4089
 O         0.471513        -0.059074         4.532197
 C         0.281531        -0.337163         3.197858
 C         0.498245        -1.780446         2.695112
 C        -0.822408        -1.038714         2.441674
 C        -1.013168        -0.300756         1.087517
 C         0.320457         0.411674         0.946237
 C         0.880007         0.992709        -0.335227
 O         1.126085        -0.433337         0.148142
 C         0.758553         0.702046         2.270151
 H         0.126933        -0.823979         5.082117
 H         1.280568        -1.836935         1.967294
 H         0.442025        -2.622781         3.457032
 H        -1.765074        -1.469140         2.977023
 H        -1.208090        -1.027352         0.324549
 H        -1.892492         0.296440         1.147247
 H         0.203495         1.006795        -1.216530
 H         1.753505         1.598178        -0.509813
 H         1.830221         0.731030         2.438917
 H         0.338452         1.661808         2.536738
