19
Iteration:  3874charge 0 multiplicity 1
 O         0.200312         0.044613         4.604463
 C         0.344960        -0.433432         3.293089
 C         0.287155        -1.899066         2.948011
 C        -0.963867        -0.907540         2.612141
 C        -0.923682        -0.572475         1.105967
 C         0.407999         0.186305         0.824645
 C         0.711074         1.213062        -0.222975
 O         1.364421        -0.096085        -0.298220
 C         1.053191         0.398537         2.169652
 H         1.108037         0.129533         4.889016
 H         0.603791        -2.460807         2.130315
 H         0.200609        -2.319424         3.882031
 H        -1.900137        -0.811136         3.216781
 H        -1.270839        -1.266797         0.380050
 H        -1.756365         0.138802         1.002111
 H        -0.097329         1.390684        -0.993872
 H         1.408534         2.002064         0.055817
 H         2.106423         0.201248         2.047724
 H         1.066279         1.422508         2.442112
