19
Iteration:  2256
 O         0.300764        -0.027605         4.531028
 C         0.300100        -0.491468         3.171861
 C         0.104800        -1.924725         2.770786
 C        -1.001153        -0.865042         2.531253
 C        -0.888920        -0.212768         1.191050
 C         0.471293         0.373876         0.969928
 C         0.743935         0.915586        -0.372615
 O         1.371428        -0.278605        -0.044226
 C         1.099273         0.575429         2.310255
 H         0.731290        -0.755146         5.007994
 H         0.635678        -2.150167         1.832381
 H        -0.100792        -2.722273         3.478170
 H        -2.019970        -1.044381         2.969539
 H        -1.283930        -0.795936         0.339520
 H        -1.578405         0.621136         1.066885
 H         0.003633         0.853805        -1.225912
 H         1.453586         1.768088        -0.447811
 H         2.164116         0.545041         2.346471
 H         0.800775         1.556453         2.701657
