19
Iteration:  2876
 O         0.095380        -0.017336         4.675133
 C         0.394374        -0.403364         3.198648
 C         0.264234        -1.825605         2.797513
 C        -0.874192        -0.958751         2.480995
 C        -1.034890        -0.269951         1.143353
 C         0.391261         0.360711         0.892181
 C         0.833752         0.983168        -0.337890
 O         1.266704        -0.287033        -0.160728
 C         1.163689         0.490429         2.263051
 H         0.459439        -0.678722         5.251274
 H         1.090859        -2.103128         2.140235
 H         0.206851        -2.501166         3.699350
 H        -1.813188        -1.072736         3.178037
 H        -1.172888        -0.945024         0.315206
 H        -1.792751         0.460802         1.281844
 H         0.178062         1.316365        -1.297596
 H         1.652068         1.807873        -0.095999
 H         2.125227         0.013683         2.104787
 H         1.113873         1.480946         2.658313
