19
Iteration:  2414charge 0 multiplicity 1
 O         0.187403        -0.034136         4.637908
 C         0.276721        -0.405542         3.262016
 C         0.119486        -1.823071         2.820786
 C        -0.924025        -0.870777         2.478805
 C        -0.929607        -0.329683         1.098415
 C         0.522578         0.247616         0.899796
 C         0.827205         1.111300        -0.255566
 O         1.231982        -0.311230        -0.269551
 C         1.162826         0.434898         2.374365
 H         1.088009        -0.293576         4.977124
 H         0.640000        -2.206765         1.993077
 H        -0.090195        -2.600796         3.521907
 H        -1.789489        -0.771590         3.085167
 H        -1.168680        -1.114665         0.316995
 H        -1.714393         0.524864         1.010349
 H         0.143799         1.454285        -0.984743
 H         1.685138         1.736768        -0.342883
 H         2.245601         0.267339         2.564862
 H         1.087744         1.575551         2.542860
