19
Iteration:  1685
 O         0.104904         0.138786         4.559201
 C         0.356699        -0.433221         3.283591
 C         0.212464        -1.905629         2.889305
 C        -0.867530        -0.842530         2.469893
 C        -0.915272        -0.318970         1.072531
 C         0.509752         0.127186         0.885553
 C         0.787091         1.179886        -0.099750
 O         1.176045        -0.219426        -0.326198
 C         1.276054         0.259343         2.313868
 H         0.012222        -0.501701         5.250687
 H         0.638061        -2.510995         2.020875
 H        -0.304033        -2.514287         3.588917
 H        -1.926673        -0.945483         2.980239
 H        -1.343925        -0.941785         0.274493
 H        -1.403851         0.620574         1.044246
 H        -0.020956         1.499166        -0.847621
 H         1.651723         1.812617         0.046638
 H         2.273831         0.022782         2.320134
 H         1.125205         1.387490         2.529613
