19
Iteration:   274
 O         0.181020         0.037470         4.516889
 C         0.288412        -0.423825         3.231516
 C         0.222924        -1.871299         2.799691
 C        -0.980219        -0.920122         2.548834
 C        -0.972166        -0.213397         1.200285
 C         0.459903         0.258973         0.896017
 C         0.869155         1.049181        -0.278895
 O         1.293198        -0.349990        -0.105367
 C         1.110260         0.472914         2.209866
 H         0.969704         0.006757         5.074301
 H         0.902925        -2.356345         2.033523
 H        -0.014514        -2.741190         3.523437
 H        -1.913142        -1.153462         3.023587
 H        -1.274467        -0.964390         0.299748
 H        -1.692219         0.672210         1.092111
 H         0.067400         1.137781        -0.937213
 H         1.630931         1.870171        -0.052554
 H         2.199500         0.202457         2.231130
 H         1.059217         1.522797         2.561132
