19
Iteration:  2114
 O         0.280920        -0.206848         4.600696
 C         0.322945        -0.354035         3.223979
 C         0.168525        -1.794543         2.774923
 C        -0.963939        -0.764329         2.559186
 C        -0.958636        -0.333329         1.080164
 C         0.452228         0.254971         0.922750
 C         0.873149         0.999375        -0.306421
 O         1.298179        -0.332677        -0.077184
 C         1.024023         0.662901         2.259530
 H         0.733575        -0.939981         5.070460
 H         0.527318        -2.088494         1.779811
 H         0.014197        -2.613214         3.516830
 H        -1.763733        -0.858360         3.231375
 H        -1.166619        -1.120816         0.333680
 H        -1.778144         0.342796         0.726522
 H         0.196923         1.126438        -1.132437
 H         1.574279         1.791204        -0.227566
 H         2.070007         0.560124         2.408476
 H         0.815719         1.804131         2.475022
