19
Iteration:  1829
 O         0.240622        -0.148909         4.512460
 C         0.256374        -0.380049         3.182145
 C         0.345639        -1.804634         2.618746
 C        -0.907923        -1.003877         2.405474
 C        -0.991925        -0.104529         1.177124
 C         0.378401         0.451688         0.962235
 C         1.001433         0.865587        -0.292758
 O         1.127965        -0.476086         0.082963
 C         0.973929         0.674069         2.351749
 H         1.106034        -0.183499         4.985020
 H         1.026637        -1.965984         1.776062
 H         0.497632        -2.397584         3.546946
 H        -1.811482        -1.312332         2.849016
 H        -1.422550        -0.564689         0.241367
 H        -1.633652         0.707664         1.466288
 H         0.423587         1.056790        -1.144513
 H         1.975514         1.402597        -0.420295
 H         2.037796         0.556649         2.355963
 H         0.725487         1.736270         2.688418
