19
Iteration:  4381charge 0 multiplicity 1
 O         0.201052        -0.144138         4.525840
 C         0.365248        -0.389472         3.197243
 C         0.480384        -1.784748         2.749858
 C        -0.839737        -1.070343         2.502689
 C        -0.971168        -0.242873         1.160251
 C         0.378520         0.313323         0.960352
 C         0.700317         0.985241        -0.296218
 O         1.241621        -0.405316        -0.034361
 C         0.931699         0.688422         2.241261
 H         0.579929         0.662065         4.937362
 H         1.164264        -1.982580         1.882899
 H         0.486719        -2.454846         3.585195
 H        -1.693794        -1.130425         3.198043
 H        -1.316072        -0.801468         0.320281
 H        -1.639141         0.623905         1.437429
 H        -0.001085         1.224807        -1.016662
 H         1.453056         1.743154        -0.235317
 H         2.040935         0.523560         2.078519
 H         0.801283         1.796395         2.487119
