19
Iteration:  3745charge 0 multiplicity 1
 O         0.407143        -0.028051         4.581718
 C         0.307324        -0.435006         3.170362
 C         0.477230        -1.836346         2.700417
 C        -0.930364        -1.049743         2.363473
 C        -1.024364        -0.255806         1.103851
 C         0.323722         0.506390         0.962283
 C         0.911976         0.871010        -0.383037
 O         1.115769        -0.423908         0.113570
 C         0.927062         0.744944         2.355937
 H        -0.151380        -0.547251         5.252021
 H         1.207673        -2.028798         1.842626
 H         0.466530        -2.762139         3.202332
 H        -1.852233        -1.137530         2.951210
 H        -1.240785        -0.746239         0.198267
 H        -1.697348         0.595564         1.271319
 H         0.160967         0.857814        -1.245843
 H         1.706551         1.600217        -0.435088
 H         2.018408         0.624395         2.344671
 H         0.611748         1.654112         2.943695
