19
Iteration:  4406charge 0 multiplicity 1
 O         0.196851        -0.144534         4.669463
 C         0.335725        -0.426720         3.309629
 C         0.496344        -1.744865         2.597683
 C        -0.781942        -1.042701         2.494774
 C        -1.054938        -0.234859         1.165592
 C         0.371696         0.373582         0.902452
 C         0.753790         0.906774        -0.521400
 O         1.197821        -0.392093         0.006746
 C         0.995035         0.705335         2.369657
 H         0.599204         0.707462         4.963309
 H         1.201315        -1.949278         1.790929
 H         0.304748        -2.613497         3.360445
 H        -1.595182        -1.442137         3.074762
 H        -1.314627        -0.953830         0.438338
 H        -1.806718         0.555974         1.318475
 H         0.060759         1.114199        -1.334442
 H         1.609476         1.626908        -0.585205
 H         2.131628         0.768480         2.440931
 H         0.607984         1.745831         2.623082
