19
Iteration:  1342
 O         0.144228         0.082169         4.544648
 C         0.237804        -0.494086         3.205196
 C         0.268043        -1.897919         2.921930
 C        -0.949698        -1.054537         2.461372
 C        -0.993453        -0.151192         1.202754
 C         0.533603         0.220113         0.892948
 C         0.924928         1.117530        -0.278366
 O         1.218952        -0.235462        -0.207357
 C         1.131714         0.340613         2.295799
 H         0.948830         0.572977         4.695670
 H         0.811806        -2.420779         2.189343
 H        -0.149775        -2.575140         3.625280
 H        -1.953421        -1.204911         2.954723
 H        -1.558634        -0.579186         0.261217
 H        -1.539166         0.783007         1.368774
 H         0.069218         1.353830        -0.866090
 H         1.738517         1.882765        -0.062606
 H         2.102609        -0.260056         2.133502
 H         1.384829         1.356822         2.603778
