19
Iteration:  2610
 O         0.195257        -0.140234         4.564285
 C         0.342343        -0.371187         3.191576
 C         0.161486        -1.855905         2.860372
 C        -1.004628        -0.830117         2.567447
 C        -0.970125        -0.302779         1.138491
 C         0.481681         0.285818         0.872569
 C         0.811470         1.062284        -0.333335
 O         1.356460        -0.283318        -0.109109
 C         1.080706         0.526260         2.255186
 H         1.008946        -0.285290         5.057830
 H         0.717438        -2.206643         1.987862
 H        -0.112395        -2.534331         3.684050
 H        -1.899392        -0.855998         3.333068
 H        -1.165804        -1.177737         0.497913
 H        -1.679290         0.415508         0.897987
 H         0.076587         1.021495        -1.137975
 H         1.498639         1.978312        -0.087951
 H         2.074927         0.138767         2.095555
 H         1.321546         1.535349         2.483415
