19
Iteration:  1013
 O         0.126589         0.059916         4.516340
 C         0.376576        -0.449105         3.258267
 C         0.232501        -1.939871         2.777736
 C        -0.891854        -0.930651         2.465702
 C        -1.014782        -0.108257         1.149861
 C         0.402640         0.402400         0.935248
 C         0.826645         1.007954        -0.296127
 O         1.269127        -0.364127        -0.065387
 C         1.197794         0.406273         2.280546
 H         0.549421        -0.483635         5.252067
 H         0.835820        -2.383067         2.025549
 H        -0.157639        -2.568477         3.485766
 H        -1.821258        -1.195962         3.125526
 H        -1.406880        -0.889541         0.353895
 H        -1.677649         0.738913         1.162347
 H         0.162550         1.261516        -1.154827
 H         1.549876         1.860186        -0.381303
 H         2.208788        -0.014785         1.883801
 H         1.374425         1.306980         2.900432
