19
Iteration:  1149
 O         0.182365        -0.156887         4.684869
 C         0.277477        -0.396923         3.290645
 C         0.360904        -1.770710         2.686740
 C        -0.860080        -0.848691         2.408541
 C        -1.008757        -0.079940         1.136086
 C         0.507641         0.438425         0.909915
 C         0.916855         0.865520        -0.398226
 O         1.134811        -0.515064        -0.063850
 C         1.003091         0.599646         2.377719
 H         0.837274        -0.607516         5.188748
 H         1.083840        -1.968622         1.757816
 H        -0.017437        -2.762246         3.188199
 H        -1.832928        -1.174279         2.827467
 H        -1.364731        -0.448706         0.214237
 H        -1.707402         0.770091         1.425278
 H         0.254983         1.205530        -1.197130
 H         1.957336         1.371301        -0.507544
 H         2.051701         0.469977         2.290564
 H         0.795871         1.625995         2.670450
