19
Iteration:   497charge 0 multiplicity 1
 O         0.168009         0.008087         4.536642
 C         0.332709        -0.473457         3.149663
 C         0.340834        -1.935163         2.707079
 C        -0.826970        -0.974468         2.458474
 C        -1.025122        -0.060355         1.179825
 C         0.411929         0.439515         0.997698
 C         0.898031         0.892756        -0.409066
 O         1.144254        -0.457747         0.069441
 C         1.052867         0.631945         2.294807
 H         0.890755        -0.443401         4.964959
 H         1.116298        -2.108344         1.978751
 H         0.140940        -2.652855         3.460327
 H        -1.732522        -1.238605         3.023770
 H        -1.302578        -0.531525         0.137394
 H        -1.756256         0.771745         1.370843
 H         0.267622         0.933873        -1.291888
 H         1.745836         1.513252        -0.284176
 H         2.156682         0.549208         2.273292
 H         0.762857         1.574266         2.854427
