19
Iteration:   440
 O         0.357922        -0.137503         4.596048
 C         0.360799        -0.324560         3.207723
 C         0.241037        -1.750255         2.768854
 C        -0.899127        -0.863030         2.545787
 C        -1.057961        -0.255548         1.127833
 C         0.437310         0.313217         0.906117
 C         0.924979         0.963508        -0.342255
 O         1.247488        -0.440968        -0.076756
 C         0.918559         0.630948         2.266021
 H        -0.215490        -0.834440         5.030202
 H         0.819980        -2.211867         1.970125
 H         0.005256        -2.543166         3.527686
 H        -1.791433        -0.958008         3.239465
 H        -1.211859        -0.976379         0.260576
 H        -1.746020         0.597826         1.126861
 H         0.364336         1.209338        -1.196703
 H         1.809628         1.625291        -0.301935
 H         2.071695         0.547471         2.286584
 H         0.612779         1.650367         2.711839
