19
Iteration:    52charge 0 multiplicity 1
 O         0.485234        -0.195476         4.566881
 C         0.261038        -0.393096         3.174371
 C         0.080987        -1.796080         2.825175
 C        -1.117876        -0.897796         2.546134
 C        -0.994604        -0.246549         1.090505
 C         0.392020         0.396123         0.847502
 C         0.945281         0.945820        -0.347378
 O         1.398813        -0.367883         0.053748
 C         0.929041         0.677953         2.257477
 H         1.301236        -0.732529         4.775526
 H         0.512048        -2.140750         1.937181
 H         0.074566        -2.422104         3.724221
 H        -2.033247        -0.950115         3.092774
 H        -1.150447        -1.032457         0.262448
 H        -1.878573         0.429726         0.925957
 H         0.461271         0.959845        -1.382617
 H         1.624586         1.805238        -0.233111
 H         2.003225         0.670296         2.302703
 H         0.501741         1.611918         2.669332
