19
Iteration:  1998charge 0 multiplicity 1
 O         0.153454         0.082452         4.629984
 C         0.266633        -0.429301         3.268128
 C         0.096301        -1.932123         2.933237
 C        -0.973555        -0.869175         2.525987
 C        -0.843557        -0.378414         1.084228
 C         0.569725         0.267234         0.899309
 C         0.837960         1.193197        -0.246139
 O         1.166822        -0.206687        -0.357510
 C         1.231018         0.314957         2.285883
 H         0.690762        -0.568313         5.163524
 H         0.894614        -2.256410         2.327817
 H        -0.158379        -2.641398         3.706937
 H        -1.931873        -0.724837         2.944776
 H        -1.017525        -1.172973         0.376058
 H        -1.655859         0.180394         0.826002
 H         0.005961         1.595532        -1.004854
 H         1.682057         1.893302        -0.024016
 H         2.263418        -0.196949         2.424668
 H         1.386334         1.316703         2.607654
