19
Iteration:  4426
 O         0.259171        -0.198154         4.637142
 C         0.308257        -0.403340         3.240120
 C         0.557707        -1.798976         2.711885
 C        -0.821784        -0.917673         2.448410
 C        -0.970540        -0.231512         1.102247
 C         0.289889         0.425836         0.927455
 C         0.784807         0.859341        -0.359517
 O         1.181727        -0.409972         0.028876
 C         0.891793         0.710848         2.268461
 H         0.984775         0.424750         4.842189
 H         1.046097        -1.750261         1.745580
 H         0.517172        -2.622169         3.483717
 H        -1.703167        -1.248399         2.968223
 H        -1.161931        -0.897635         0.315852
 H        -1.770912         0.579166         1.209268
 H         0.063367         0.800441        -1.096073
 H         1.500587         1.640489        -0.619352
 H         2.018503         0.819497         2.388804
 H         0.470964         1.662493         2.767821
