19
Iteration:   102charge 0 multiplicity 1
 O         0.145945        -0.016749         4.548481
 C         0.328795        -0.410254         3.221554
 C         0.310683        -1.862302         2.657364
 C        -0.932757        -0.902229         2.505621
 C        -0.973262        -0.105344         1.194224
 C         0.471352         0.357287         0.952158
 C         0.890111         0.868668        -0.295088
 O         1.192948        -0.456817        -0.104393
 C         1.080013         0.593217         2.352042
 H         0.538462        -0.694175         5.143967
 H         0.944377        -1.940327         1.748726
 H         0.324269        -2.691650         3.438383
 H        -1.791876        -0.986265         3.193758
 H        -1.402864        -0.537826         0.339998
 H        -1.639215         0.763753         1.342990
 H         0.116581         1.117580        -0.981310
 H         1.789571         1.547713        -0.577740
 H         2.171935         0.273902         2.242283
 H         0.927007         1.676650         2.672871
