19
Iteration:  3216
 O         0.149969         0.049849         4.500429
 C         0.397803        -0.487560         3.207365
 C         0.141099        -1.976828         2.851866
 C        -0.912782        -0.964765         2.551062
 C        -0.961886        -0.318225         1.200693
 C         0.426600         0.360907         0.877083
 C         0.836279         1.111670        -0.307045
 O         1.268803        -0.231859        -0.060685
 C         1.149651         0.415385         2.247396
 H         1.065341         0.300591         4.779696
 H         0.659795        -2.272050         1.953250
 H         0.027637        -2.671599         3.678147
 H        -1.986633        -1.035201         2.963994
 H        -1.201472        -0.917631         0.268281
 H        -1.802574         0.475401         1.125599
 H         0.001610         1.349985        -0.986352
 H         1.684226         1.792458        -0.393325
 H         2.242252         0.154231         2.205541
 H         1.189933         1.473301         2.554903
