19
Iteration:    49
 O         0.489869        -0.218583         4.575667
 C         0.249867        -0.356345         3.182479
 C         0.084957        -1.782750         2.816269
 C        -1.124996        -0.870045         2.553939
 C        -0.980562        -0.284294         1.101782
 C         0.399584         0.364239         0.847219
 C         0.965825         0.972507        -0.353993
 O         1.383433        -0.372585         0.035206
 C         0.909646         0.670609         2.263843
 H         1.308695        -0.710711         4.781343
 H         0.523291        -2.173441         1.872314
 H         0.067846        -2.500540         3.688890
 H        -2.070640        -0.968070         3.104706
 H        -1.127371        -1.069624         0.331676
 H        -1.936367         0.477106         0.940820
 H         0.496143         0.875446        -1.382711
 H         1.708378         1.942969        -0.249917
 H         2.056466         0.714500         2.342768
 H         0.460044         1.724626         2.587867
