19
Iteration:  2555
 O         0.213630        -0.098402         4.549146
 C         0.318804        -0.372698         3.139340
 C         0.375007        -1.811183         2.722458
 C        -0.866806        -0.988215         2.395466
 C        -1.034618        -0.106294         1.144471
 C         0.407130         0.415616         0.914287
 C         0.985582         0.911623        -0.253396
 O         1.096387        -0.482262         0.014245
 C         0.995933         0.607021         2.358623
 H         1.047659        -0.358286         5.035759
 H         1.084249        -2.133771         1.924638
 H         0.196220        -2.559699         3.453697
 H        -1.811700        -1.259958         3.069463
 H        -1.429057        -0.627898         0.249521
 H        -1.745174         0.702255         1.377854
 H         0.429480         1.172243        -1.167788
 H         1.919733         1.615552        -0.212049
 H         2.071225         0.691861         2.375159
 H         0.601326         1.594965         2.549456
