19
Iteration:  4094charge 0 multiplicity 1
 O         0.492986        -0.063449         4.538380
 C         0.240730        -0.313546         3.208771
 C         0.479636        -1.782495         2.702628
 C        -0.840658        -1.075816         2.450182
 C        -0.985130        -0.315389         1.080056
 C         0.298042         0.398654         0.952332
 C         0.857030         0.967869        -0.328153
 O         1.135795        -0.421531         0.117084
 C         0.781518         0.728139         2.273203
 H         0.051345        -0.747239         5.004676
 H         1.246434        -2.013468         1.904608
 H         0.412452        -2.502134         3.461321
 H        -1.604667        -1.548778         2.946526
 H        -1.143348        -1.084599         0.253761
 H        -1.751761         0.544234         1.209596
 H         0.260200         1.092931        -1.223526
 H         1.795749         1.600372        -0.323189
 H         1.895972         0.791309         2.336181
 H         0.310738         1.763181         2.604121
