19
Iteration:  2275
 O         0.270146        -0.064229         4.579897
 C         0.407378        -0.456036         3.229877
 C         0.030060        -1.917352         2.809983
 C        -0.886411        -0.821280         2.493723
 C        -1.031029        -0.276943         1.073775
 C         0.423638         0.324312         0.903518
 C         0.733989         0.986823        -0.326033
 O         1.454002        -0.249267        -0.066283
 C         1.080909         0.526357         2.289822
 H         0.878303        -0.585553         5.091672
 H         0.523319        -2.492455         1.951575
 H        -0.277780        -2.454387         3.765855
 H        -1.707367        -0.652064         3.162221
 H        -1.210837        -1.116671         0.385634
 H        -1.762039         0.511265         0.902234
 H        -0.116430         1.020212        -1.022792
 H         1.294291         2.009722        -0.449368
 H         2.155791         0.371445         2.284080
 H         1.047577         1.440415         2.738235
