19
Iteration:  2955charge 0 multiplicity 1
 O         0.289359        -0.351954         4.549483
 C         0.351048        -0.314377         3.124790
 C         0.358684        -1.688069         2.684163
 C        -0.966678        -0.802392         2.549095
 C        -1.100813        -0.204529         1.124265
 C         0.323392         0.337046         0.911543
 C         0.994983         0.866015        -0.340171
 O         1.255401        -0.390661         0.158640
 C         0.931647         0.693385         2.252599
 H         1.149777        -0.301579         4.945898
 H         0.718528        -1.983378         1.724091
 H         0.317550        -2.401690         3.431207
 H        -1.801685        -1.070440         3.105870
 H        -1.428822        -0.872224         0.373036
 H        -1.858813         0.576221         1.024942
 H         0.546008         0.690715        -1.375652
 H         1.753120         1.637825        -0.160446
 H         2.029844         0.662481         2.236928
 H         0.653280         1.714925         2.422397
