19
Iteration:  3610charge 0 multiplicity 1
 O         0.240301         0.116173         4.652272
 C         0.304967        -0.450163         3.243936
 C         0.261395        -1.907833         2.835036
 C        -0.938432        -1.007519         2.550407
 C        -1.033799        -0.339493         1.156408
 C         0.464072         0.220788         0.885725
 C         0.800166         1.113588        -0.200688
 O         1.314713        -0.240210        -0.310907
 C         1.157934         0.411248         2.217082
 H        -0.698326         0.342399         4.804753
 H         0.919157        -2.456854         2.112794
 H         0.002800        -2.435885         3.741691
 H        -1.765393        -1.157998         3.299078
 H        -1.295339        -1.022580         0.358716
 H        -1.674691         0.519345         1.034570
 H         0.114375         1.591010        -0.958865
 H         1.726658         1.837555        -0.178272
 H         2.249999         0.292852         2.292516
 H         0.858703         1.410658         2.495524
