19
Iteration:  2470charge 0 multiplicity 1
 O         0.400415        -0.061916         4.580732
 C         0.317458        -0.487884         3.195985
 C         0.137325        -1.948136         2.743488
 C        -1.022282        -0.898877         2.447570
 C        -0.979157        -0.173733         1.089951
 C         0.371039         0.354416         0.907330
 C         0.924855         0.993931        -0.387582
 O         1.315590        -0.322477         0.120160
 C         0.941451         0.623639         2.295706
 H         1.129613        -0.551525         4.944224
 H         0.816545        -2.233211         1.897927
 H        -0.010162        -2.593933         3.590261
 H        -2.000001        -1.182618         3.008139
 H        -1.367312        -0.924904         0.369847
 H        -1.759719         0.688813         1.037837
 H         0.419390         0.958589        -1.285351
 H         1.846851         1.588004        -0.350234
 H         2.063279         0.556264         2.229493
 H         0.624068         1.710313         2.565770
