19
Iteration:  2494charge 0 multiplicity 1
 O         0.297558        -0.167103         4.534149
 C         0.282825        -0.426999         3.157251
 C         0.242344        -1.832658         2.646093
 C        -0.980529        -0.849842         2.431281
 C        -0.957909        -0.117972         1.109020
 C         0.440248         0.392602         1.000677
 C         0.837028         0.822771        -0.372723
 O         1.344820        -0.451601         0.068179
 C         0.966888         0.736790         2.432443
 H         1.156431        -0.614192         4.715112
 H         0.802141        -2.058355         1.684755
 H         0.079866        -2.531470         3.525137
 H        -1.842392        -1.225955         3.028971
 H        -1.473367        -0.646695         0.289437
 H        -1.614440         0.780372         1.295145
 H        -0.040797         0.747407        -0.991280
 H         1.509839         1.641044        -0.566366
 H         2.112443         0.726217         2.564307
 H         0.570814         1.802634         2.697461
