19
Iteration:   871
 O         0.269651        -0.156669         4.571963
 C         0.344142        -0.434493         3.209422
 C         0.087528        -1.823883         2.901837
 C        -0.996262        -0.882718         2.546546
 C        -1.020693        -0.238467         1.166660
 C         0.451177         0.278342         0.900619
 C         0.873809         1.004921        -0.350651
 O         1.365159        -0.331830        -0.186109
 C         1.052038         0.631369         2.301372
 H         1.174035        -0.443349         4.922090
 H         0.553139        -2.161836         2.022172
 H        -0.022026        -2.520555         3.755039
 H        -1.878153        -0.780476         3.129714
 H        -1.255465        -1.009525         0.361635
 H        -1.609542         0.616811         0.994760
 H         0.245859         1.216946        -1.246304
 H         1.738787         1.770837        -0.353062
 H         2.079102         0.501697         2.170533
 H         0.821518         1.623195         2.683916
