19
Iteration:  3527charge 0 multiplicity 1
 O         0.288199         0.003875         4.540943
 C         0.329806        -0.467321         3.245401
 C         0.021031        -1.868878         3.055893
 C        -1.031768        -0.843301         2.541931
 C        -0.950374        -0.461607         1.114879
 C         0.483489         0.115377         0.866120
 C         0.727255         1.158476        -0.212996
 O         1.464735        -0.056100        -0.306993
 C         1.169425         0.318732         2.231372
 H         0.795616         0.807171         4.637359
 H         0.643245        -2.304999         2.317161
 H        -0.305427        -2.576343         3.819858
 H        -2.034482        -0.844622         3.085927
 H        -1.196700        -1.311799         0.452050
 H        -1.699472         0.386778         0.890766
 H        -0.119188         1.007122        -0.931385
 H         1.157648         2.084917        -0.196494
 H         2.259783         0.230255         2.148226
 H         0.982104         1.364275         2.640733
