19
Iteration:  3192charge 0 multiplicity 1
 O         0.235385         0.039768         4.576214
 C         0.366653        -0.478637         3.187732
 C         0.138243        -1.906174         2.964305
 C        -0.928122        -0.884711         2.531689
 C        -0.974629        -0.361489         1.119661
 C         0.422384         0.276220         0.822521
 C         0.796711         1.136421        -0.279717
 O         1.320713        -0.221844        -0.198512
 C         1.136119         0.418709         2.271327
 H         0.607304        -0.743315         4.968338
 H         0.748024        -2.348002         2.263943
 H        -0.313715        -2.483782         3.755711
 H        -1.828526        -0.780633         3.184482
 H        -1.068352        -1.119253         0.256793
 H        -1.861518         0.336859         0.895755
 H         0.112318         1.474412        -1.058903
 H         1.415522         1.897187         0.081821
 H         2.231802         0.225992         2.248586
 H         1.080275         1.479015         2.667939
