19
Iteration:  4046
 O         0.220057        -0.182037         4.552933
 C         0.304654        -0.341535         3.188638
 C         0.499366        -1.794555         2.647832
 C        -0.868487        -0.987690         2.477880
 C        -1.015586        -0.256764         1.264192
 C         0.381787         0.306418         0.921746
 C         0.743640         0.926067        -0.401416
 O         1.313183        -0.391250         0.116753
 C         0.893944         0.782729         2.210267
 H         1.155760        -0.205084         4.957981
 H         0.959363        -1.976425         1.692849
 H         0.610158        -2.556592         3.447612
 H        -1.803269        -1.199348         3.127740
 H        -1.332447        -0.908441         0.429786
 H        -1.697582         0.520314         1.557989
 H        -0.075032         0.899549        -1.150212
 H         1.411611         1.750967        -0.479993
 H         2.011922         0.850780         2.156004
 H         0.460484         1.797053         2.564611
