19
Iteration:  3298charge 0 multiplicity 1
 O         0.383820        -0.206548         4.540209
 C         0.370063        -0.404584         3.118958
 C         0.223162        -1.802959         2.709328
 C        -0.944633        -0.835163         2.525338
 C        -1.028594        -0.185827         1.134207
 C         0.376390         0.395317         0.945747
 C         0.940720         0.974004        -0.318159
 O         1.219604        -0.461351         0.108711
 C         1.016072         0.675776         2.250743
 H        -0.414111        -0.602375         4.863261
 H         0.817593        -2.161123         1.894751
 H         0.076707        -2.575475         3.513734
 H        -1.859666        -0.801624         3.157887
 H        -1.147407        -0.903849         0.313949
 H        -1.735595         0.610321         1.026513
 H         0.238221         0.844157        -1.225681
 H         1.865597         1.558331        -0.461944
 H         2.086498         0.719258         2.408261
 H         0.493883         1.619485         2.463781
