19
Iteration:  3279
 O         0.319952        -0.227060         4.640279
 C         0.320209        -0.380772         3.237528
 C         0.259460        -1.824609         2.740557
 C        -0.885137        -0.832740         2.522467
 C        -1.008995        -0.185628         1.144441
 C         0.364231         0.338097         0.913112
 C         1.005807         0.912861        -0.408690
 O         1.212517        -0.412937        -0.138085
 C         0.993413         0.701754         2.347904
 H        -0.565773         0.092708         4.857096
 H         0.696630        -2.161744         1.855114
 H         0.317415        -2.483021         3.572744
 H        -1.854713        -1.159532         3.066593
 H        -1.418176        -0.870240         0.325107
 H        -1.900304         0.448948         1.309718
 H         0.333070         1.257934        -1.226713
 H         1.810826         1.503490        -0.115637
 H         2.086430         0.499737         2.319879
 H         0.900957         1.779812         2.756767
