19
Iteration:  1079charge 0 multiplicity 1
 O         0.482623        -0.236745         4.691072
 C         0.273024        -0.398901         3.240133
 C         0.100557        -1.761866         2.705054
 C        -1.008130        -0.788144         2.466544
 C        -1.008992        -0.178398         1.022099
 C         0.405951         0.291234         0.806450
 C         0.941982         0.950403        -0.321309
 O         1.318004        -0.432975         0.057629
 C         0.875395         0.676630         2.365158
 H         1.426615        -0.200546         4.631510
 H         0.564600        -2.040021         1.823327
 H        -0.093665        -2.514367         3.354436
 H        -1.954819        -1.051650         3.000724
 H        -1.196952        -0.999256         0.233542
 H        -1.687398         0.642802         0.880344
 H         0.395056         1.088341        -1.255897
 H         1.854777         1.438238        -0.357028
 H         1.993776         0.599943         2.347332
 H         0.438806         1.677674         2.689859
