19
Iteration:  2226charge 0 multiplicity 1
 O         0.290643        -0.126311         4.660076
 C         0.286272        -0.393490         3.221325
 C         0.327832        -1.798205         2.739515
 C        -0.925286        -0.854740         2.412633
 C        -1.047346        -0.153863         1.072768
 C         0.369846         0.349527         0.936303
 C         0.919901         0.899597        -0.250873
 O         1.190134        -0.445987        -0.059911
 C         1.026221         0.632644         2.272208
 H         0.918969        -0.862347         4.865385
 H         1.070058        -1.967825         1.990974
 H         0.122439        -2.543804         3.466184
 H        -1.871814        -1.264723         2.867895
 H        -1.403598        -0.818765         0.244210
 H        -1.641254         0.834949         1.217755
 H         0.384414         1.153430        -1.162459
 H         1.781267         1.497672        -0.243018
 H         2.175969         0.592476         2.324838
 H         0.781317         1.778347         2.707195
