19
Iteration:  2864
 O         0.117299        -0.040386         4.600812
 C         0.355956        -0.435881         3.293994
 C         0.215470        -1.873144         2.885933
 C        -0.893179        -0.871174         2.563797
 C        -0.986889        -0.366279         1.162594
 C         0.395669         0.348154         0.881225
 C         0.857157         1.149236        -0.333426
 O         1.313667        -0.291906        -0.238911
 C         1.110802         0.463834         2.241256
 H         0.722415        -0.551341         5.204422
 H         0.791147        -2.239238         2.001218
 H         0.015667        -2.657079         3.680372
 H        -1.789423        -0.872073         3.253253
 H        -1.168617        -1.200277         0.474665
 H        -1.818034         0.264594         0.989259
 H         0.151777         1.289521        -1.284789
 H         1.779516         1.855888        -0.339175
 H         2.184726         0.351111         2.136647
 H         1.076919         1.526883         2.471670
