19
Iteration:  2216charge 0 multiplicity 1
 O         0.266828        -0.184585         4.620975
 C         0.312567        -0.341649         3.259699
 C         0.375168        -1.742346         2.726963
 C        -0.888021        -0.877808         2.426320
 C        -1.055660        -0.114569         1.119571
 C         0.318460         0.360603         0.905989
 C         1.053399         0.897660        -0.284162
 O         1.119616        -0.495397        -0.049996
 C         0.999374         0.647888         2.264671
 H         0.914347        -0.618527         5.193568
 H         1.020775        -2.032296         1.931147
 H         0.122926        -2.634414         3.223835
 H        -1.822666        -1.243149         2.951520
 H        -1.272005        -0.811876         0.267379
 H        -1.946930         0.675570         1.134398
 H         0.402623         1.262775        -1.061286
 H         1.778608         1.468404         0.176986
 H         2.151796         0.530575         2.100422
 H         0.584757         1.744409         2.643481
