19
Iteration:  4866charge 0 multiplicity 1
 O         0.219822        -0.087902         4.541687
 C         0.308174        -0.333247         3.153197
 C         0.605476        -1.829924         2.877856
 C        -0.768908        -1.121048         2.533770
 C        -0.918643        -0.553042         1.100415
 C         0.321215         0.235388         0.868557
 C         0.590856         1.082390        -0.264679
 O         1.293184        -0.182976        -0.054337
 C         0.817578         0.744714         2.250367
 H         1.096241         0.336730         4.564945
 H         1.039680        -2.287144         1.940004
 H         0.680543        -2.355052         3.811534
 H        -1.679185        -1.216960         3.204494
 H        -1.129077        -1.265647         0.372778
 H        -1.661471         0.249504         1.000724
 H        -0.252408         1.201213        -0.889711
 H         1.330779         1.891466        -0.090423
 H         1.930821         0.774499         2.197183
 H         0.470423         1.722839         2.580646
