19
Iteration:   761
 O         0.269771        -0.292106         4.631915
 C         0.336181        -0.377546         3.147553
 C         0.147114        -1.761510         2.676980
 C        -1.008196        -0.709677         2.550884
 C        -0.960106        -0.279044         1.154379
 C         0.418521         0.429490         0.907855
 C         0.931629         0.854727        -0.369313
 O         1.263026        -0.445794         0.017342
 C         1.019433         0.722742         2.295196
 H         1.185248        -0.265424         4.869566
 H         0.785261        -1.878491         1.740634
 H         0.174959        -2.532264         3.424804
 H        -1.743355        -1.027479         3.231453
 H        -1.114904        -1.086416         0.363232
 H        -1.704692         0.442593         0.996174
 H         0.292557         0.997584        -1.262468
 H         1.601707         1.787388        -0.409230
 H         2.061379         0.515182         2.341867
 H         0.822115         1.719446         2.684433
