19
Iteration:  4198charge 0 multiplicity 1
 O         0.279868         0.112204         4.623305
 C         0.338606        -0.422600         3.319475
 C         0.335472        -1.899249         2.878504
 C        -0.807030        -1.055745         2.525700
 C        -0.961464        -0.535880         1.119266
 C         0.385171         0.276852         0.805590
 C         0.694312         1.161642        -0.277295
 O         1.235111        -0.186299        -0.249539
 C         1.089720         0.528939         2.267359
 H        -0.575639        -0.123147         5.015305
 H         0.962860        -2.300056         2.089538
 H         0.171967        -2.675029         3.641759
 H        -1.719794        -1.213672         3.169146
 H        -1.169429        -1.237926         0.309063
 H        -1.756584         0.237079         1.209332
 H        -0.099211         1.380834        -0.979680
 H         1.474396         1.975187        -0.166177
 H         2.169558         0.418620         2.259899
 H         0.918421         1.506825         2.527550
