19
Iteration:   888charge 0 multiplicity 1
 O         0.387730        -0.087807         4.643583
 C         0.237120        -0.419698         3.240494
 C        -0.001268        -1.950114         2.811869
 C        -0.997899        -0.769766         2.571225
 C        -0.876380        -0.289337         1.077029
 C         0.483519         0.286374         0.862726
 C         0.800605         1.036616        -0.408701
 O         1.404483        -0.268443        -0.096017
 C         1.008067         0.485019         2.290879
 H         1.365637        -0.032031         4.880626
 H         0.569383        -2.601926         2.040923
 H        -0.278570        -2.538393         3.698953
 H        -1.983383        -0.816936         3.049811
 H        -1.259121        -1.015607         0.345498
 H        -1.590463         0.617110         1.143016
 H        -0.051702         1.021608        -1.077799
 H         1.394097         1.927541        -0.321347
 H         2.191585         0.455480         2.433993
 H         0.635386         1.556307         2.424008
