19
Iteration:  2262
 O         0.295473        -0.030285         4.539730
 C         0.331427        -0.471567         3.169917
 C         0.061317        -1.956407         2.749137
 C        -0.980830        -0.821268         2.541255
 C        -0.926925        -0.245443         1.140596
 C         0.446824         0.366726         0.988988
 C         0.731984         0.931729        -0.354413
 O         1.413260        -0.263748        -0.075803
 C         1.100501         0.565939         2.342677
 H         0.755283        -0.699197         5.137223
 H         0.763596        -2.347854         1.986376
 H        -0.117920        -2.713096         3.562710
 H        -1.869556        -0.887491         3.092800
 H        -1.241638        -0.803294         0.246038
 H        -1.721012         0.574264         1.115317
 H         0.023200         0.700982        -1.120438
 H         1.423581         1.805981        -0.483352
 H         2.223466         0.451987         2.116112
 H         0.761823         1.615106         2.712012
