19
Iteration:    65charge 0 multiplicity 1
 O         0.448274        -0.087649         4.512849
 C         0.319538        -0.432842         3.142612
 C         0.085443        -1.925253         2.794761
 C        -0.975515        -0.869061         2.446494
 C        -1.062375        -0.191204         1.052563
 C         0.326873         0.424179         0.964827
 C         0.898681         0.889450        -0.353609
 O         1.402558        -0.341505         0.128082
 C         0.949911         0.642431         2.292061
 H         1.102348        -0.657676         4.899953
 H         0.713661        -2.504906         2.136208
 H        -0.143486        -2.507887         3.651244
 H        -1.894956        -0.897913         3.032136
 H        -1.234812        -0.890649         0.194405
 H        -1.703405         0.608434         1.059155
 H         0.147667         0.958155        -1.156915
 H         1.616334         1.594126        -0.333961
 H         1.990918         0.574938         2.163252
 H         0.793262         1.563788         2.751045
