19
Iteration:  3466charge 0 multiplicity 1
 O         0.300511         0.108439         4.592787
 C         0.365798        -0.447618         3.241073
 C         0.081006        -2.004234         2.863981
 C        -0.916424        -0.873734         2.544231
 C        -0.922095        -0.433887         1.082109
 C         0.433794         0.351272         0.870664
 C         0.876870         1.155045        -0.252645
 O         1.187934        -0.299489        -0.227607
 C         1.164648         0.520455         2.330289
 H        -0.393242        -0.324639         5.074974
 H         0.437953        -2.488208         1.965261
 H         0.089149        -2.661264         3.802527
 H        -1.855975        -0.952492         2.968965
 H        -1.130209        -1.311883         0.425292
 H        -1.731547         0.226182         0.937689
 H         0.216457         1.177077        -1.128575
 H         1.748374         1.935697        -0.216160
 H         2.183630         0.103868         2.226102
 H         1.128168         1.578692         2.666164
