19
Iteration:  2183
 O         0.201760        -0.161056         4.494424
 C         0.347840        -0.382224         3.163267
 C         0.383552        -1.842756         2.590891
 C        -0.909811        -0.965987         2.491151
 C        -1.049422        -0.102889         1.226200
 C         0.372404         0.381102         0.965519
 C         1.062568         0.842527        -0.323862
 O         1.119039        -0.483894         0.071735
 C         0.978712         0.711404         2.344819
 H         1.055782         0.141833         4.919733
 H         0.813207        -1.936992         1.627425
 H         0.282487        -2.649707         3.251642
 H        -1.853077        -1.158241         3.098241
 H        -1.515872        -0.543184         0.299155
 H        -1.859420         0.721837         1.416951
 H         0.520163         1.260613        -1.176513
 H         1.858104         1.546083        -0.141238
 H         2.117598         0.856524         2.269064
 H         0.716512         1.794006         2.609580
