19
Iteration:  4189charge 0 multiplicity 1
 O         0.311366         0.054160         4.608218
 C         0.334870        -0.388728         3.241145
 C         0.321997        -1.916123         2.910946
 C        -0.799075        -1.031834         2.509608
 C        -0.912366        -0.440490         1.065242
 C         0.412498         0.244095         0.853111
 C         0.599806         1.200532        -0.338873
 O         1.226296        -0.246089        -0.203574
 C         1.047061         0.550953         2.323166
 H        -0.519777        -0.142957         5.073466
 H         1.174535        -2.138442         2.319711
 H         0.193675        -2.517814         3.713160
 H        -1.684502        -1.235486         3.085839
 H        -1.017700        -1.344334         0.395229
 H        -1.735659         0.240820         1.068688
 H         0.005943         1.338643        -1.199720
 H         1.412568         1.935230        -0.100969
 H         2.093085         0.259340         2.284695
 H         0.928393         1.484608         2.830335
