19
Iteration:  1203charge 0 multiplicity 1
 O         0.176343        -0.019819         4.489768
 C         0.408505        -0.465990         3.164535
 C         0.136031        -1.960910         2.751396
 C        -0.894339        -0.829345         2.524670
 C        -1.011947        -0.143918         1.155020
 C         0.429132         0.271439         0.946791
 C         0.876956         1.014248        -0.241628
 O         1.242920        -0.371644        -0.035892
 C         1.097528         0.518426         2.245594
 H         0.976542        -0.091235         5.001788
 H         0.814388        -2.374980         1.854353
 H         0.054408        -2.634416         3.669928
 H        -1.742314        -0.865785         3.267146
 H        -1.248892        -0.731106         0.315981
 H        -1.792779         0.641915         1.077341
 H         0.387282         1.157286        -1.177751
 H         1.741554         1.667767         0.094041
 H         2.117095         0.526769         2.127464
 H         0.980889         1.539707         2.672749
