19
Iteration:  2106
 O         0.295759        -0.175720         4.612561
 C         0.359813        -0.350020         3.187842
 C         0.140578        -1.761040         2.804035
 C        -0.980447        -0.805130         2.529424
 C        -0.981162        -0.339417         1.041753
 C         0.452358         0.212091         0.859212
 C         0.829286         1.068063        -0.216993
 O         1.290153        -0.345012        -0.091204
 C         1.031328         0.607215         2.274944
 H         0.754502        -0.898923         5.072965
 H         0.747727        -2.071493         1.966520
 H        -0.101516        -2.488783         3.536466
 H        -1.805866        -0.754017         3.239971
 H        -0.860938        -1.287446         0.495290
 H        -1.684188         0.550531         0.870321
 H         0.441529         1.191701        -1.266624
 H         1.620214         1.774895        -0.106478
 H         2.164549         0.620171         2.206227
 H         0.632279         1.536576         2.605603
