19
Iteration:   959
 O         0.148789         0.048669         4.662087
 C         0.307807        -0.420961         3.281393
 C         0.163937        -1.929045         2.913389
 C        -0.863449        -0.837669         2.481467
 C        -0.991363        -0.300861         1.106092
 C         0.442733         0.246509         0.866647
 C         0.927305         1.066067        -0.232735
 O         1.211422        -0.250651        -0.355992
 C         1.156815         0.413887         2.287236
 H         0.708188        -0.673231         5.106701
 H         0.782510        -2.362082         2.166825
 H        -0.029614        -2.601393         3.690768
 H        -1.825045        -0.759741         3.107859
 H        -1.314071        -1.169358         0.420812
 H        -1.700445         0.526997         1.057778
 H         0.280826         1.575752        -1.042455
 H         1.940784         1.567022        -0.038566
 H         2.209159         0.317264         2.167351
 H         0.958745         1.385336         2.739589
