19
Iteration:  2234charge 0 multiplicity 1
 O         0.313879        -0.102211         4.632537
 C         0.265327        -0.381398         3.192942
 C         0.262645        -1.808356         2.710280
 C        -0.934521        -0.897160         2.445102
 C        -0.999581        -0.164140         1.101365
 C         0.459606         0.324447         0.935725
 C         0.862880         1.014552        -0.333797
 O         1.240726        -0.458515        -0.023275
 C         0.994140         0.583129         2.346535
 H         0.855739        -0.829914         5.003211
 H         1.024020        -2.110628         1.967340
 H         0.101768        -2.453692         3.586654
 H        -1.849335        -1.102776         3.040977
 H        -1.456315        -0.613214         0.208015
 H        -1.717364         0.649022         1.183644
 H         0.114395         1.020891        -1.165969
 H         1.782970         1.653503        -0.491582
 H         2.046184         0.440750         2.328239
 H         0.803206         1.685648         2.542281
