19
Iteration:  3431charge 0 multiplicity 1
 O         0.192115         0.051207         4.545997
 C         0.270504        -0.428024         3.241431
 C         0.356777        -1.869767         2.865995
 C        -0.885316        -0.916821         2.406276
 C        -1.070833        -0.110462         1.141257
 C         0.457047         0.229548         0.941137
 C         0.806674         1.033738        -0.223010
 O         1.284221        -0.392913        -0.192778
 C         1.081068         0.444030         2.302758
 H         0.610317        -0.673932         4.987491
 H         1.136161        -2.294755         2.232000
 H         0.030715        -2.479790         3.678081
 H        -1.881864        -1.202356         2.820452
 H        -1.709690        -0.454650         0.287857
 H        -1.395949         0.827542         1.439576
 H         0.169074         1.078793        -1.197310
 H         1.508740         1.896967        -0.218571
 H         2.100999         0.127611         2.355872
 H         1.122891         1.479344         2.572621
