19
Iteration:   105
 O         0.128916        -0.029935         4.565111
 C         0.303865        -0.406770         3.223484
 C         0.331767        -1.825787         2.666011
 C        -0.907295        -0.901337         2.514734
 C        -0.977623        -0.106517         1.191928
 C         0.475452         0.342350         0.968835
 C         0.922626         0.874986        -0.288717
 O         1.174685        -0.465177        -0.142875
 C         1.088255         0.592630         2.339534
 H         0.556939        -0.729312         5.118127
 H         0.911631        -1.938761         1.772275
 H         0.317733        -2.642154         3.403297
 H        -1.765233        -0.999241         3.140237
 H        -1.484893        -0.601746         0.323065
 H        -1.708386         0.822062         1.402257
 H         0.036097         1.067611        -1.031806
 H         1.808061         1.568353        -0.551572
 H         2.156297         0.255308         2.311176
 H         0.970095         1.705672         2.690868
