19
Iteration:  1999
 O         0.147194         0.079975         4.628723
 C         0.258537        -0.431609         3.264368
 C         0.100337        -1.927532         2.929080
 C        -0.969298        -0.869018         2.528875
 C        -0.840420        -0.381576         1.094435
 C         0.573205         0.259627         0.904531
 C         0.835712         1.197109        -0.249454
 O         1.165643        -0.203602        -0.359307
 C         1.231088         0.312537         2.285419
 H         0.682895        -0.551015         5.167116
 H         0.895296        -2.273008         2.334352
 H        -0.153552        -2.631500         3.687890
 H        -1.919936        -0.693237         2.975208
 H        -1.014594        -1.163251         0.373342
 H        -1.640677         0.205642         0.821563
 H        -0.010654         1.581304        -0.987053
 H         1.715734         1.879855        -0.044907
 H         2.264520        -0.215720         2.425798
 H         1.403292         1.357813         2.564944
