19
Iteration:  1790
 O         0.293870        -0.198400         4.666124
 C         0.380457        -0.390242         3.206714
 C         0.106056        -1.765307         2.702487
 C        -0.953434        -0.745428         2.557205
 C        -0.982862        -0.298595         1.098566
 C         0.430302         0.327789         0.912462
 C         0.863873         0.901004        -0.365766
 O         1.411761        -0.339705        -0.050389
 C         0.941101         0.643629         2.300934
 H         0.763829        -0.964413         4.975145
 H         0.648405        -2.096057         1.762931
 H         0.144729        -2.577392         3.406912
 H        -1.951205        -0.948197         3.021021
 H        -1.194449        -0.964048         0.245216
 H        -1.894260         0.526314         0.982683
 H         0.047638         0.931608        -1.175600
 H         1.500077         1.788476        -0.212108
 H         2.112432         0.675914         2.265324
 H         0.620307         1.587187         2.656351
