19
Iteration:    82
 O         0.301146         0.026351         4.497051
 C         0.359590        -0.513346         3.175214
 C         0.156683        -1.910071         2.699369
 C        -0.872732        -0.888676         2.429783
 C        -0.975854        -0.135137         1.138453
 C         0.441815         0.367695         0.926707
 C         0.813195         0.944336        -0.334992
 O         1.255390        -0.402648         0.167211
 C         1.068968         0.584091         2.274470
 H         0.733760        -0.610487         5.049834
 H         0.706717        -2.315835         1.849936
 H        -0.311219        -2.626212         3.458157
 H        -1.806719        -1.049505         2.947184
 H        -1.386167        -0.741785         0.315507
 H        -1.827077         0.718844         1.279353
 H         0.192417         0.750748        -1.255452
 H         1.582463         1.889677        -0.450709
 H         2.213001         0.536153         2.351418
 H         0.610228         1.508032         2.846863
