19
Iteration:  1576
 O         0.275006        -0.110499         4.663540
 C         0.250896        -0.396842         3.204805
 C         0.203716        -1.802652         2.803729
 C        -0.984259        -0.908253         2.491598
 C        -0.952133        -0.216966         1.107159
 C         0.471097         0.341860         0.881078
 C         0.903866         1.068561        -0.346195
 O         1.256758        -0.357926        -0.082777
 C         1.035542         0.483366         2.274258
 H         1.156978        -0.509571         4.948509
 H         0.755976        -2.332856         2.015756
 H        -0.141644        -2.463570         3.628472
 H        -1.885531        -1.038546         3.174191
 H        -1.075606        -0.953392         0.276646
 H        -1.780223         0.541097         0.807565
 H         0.197553         1.306453        -1.177913
 H         1.627994         1.815991        -0.200433
 H         2.013815         0.193766         2.237147
 H         0.981295         1.530549         2.727399
