19
Iteration:  3759charge 0 multiplicity 1
 O         0.363295        -0.055522         4.581419
 C         0.310677        -0.390949         3.243608
 C         0.390363        -1.797500         2.632083
 C        -0.781766        -0.997386         2.442529
 C        -1.001682        -0.162925         1.133556
 C         0.356647         0.396361         0.957718
 C         0.800959         0.914474        -0.344650
 O         1.195265        -0.457353         0.011298
 C         0.921342         0.661604         2.354964
 H        -0.363581        -0.558967         4.933650
 H         1.039663        -1.922369         1.756102
 H         0.303490        -2.456235         3.558070
 H        -1.671926        -1.460180         2.934534
 H        -1.157886        -0.896283         0.251459
 H        -1.977619         0.375005         1.238675
 H         0.136357         1.044089        -1.129646
 H         1.718839         1.495986        -0.294285
 H         2.036327         0.800286         2.382657
 H         0.553517         1.723485         2.576165
