19
Iteration:  4293charge 0 multiplicity 1
 O         0.290672         0.041141         4.605466
 C         0.366010        -0.408894         3.280901
 C         0.251716        -1.850955         2.902960
 C        -0.911478        -0.980611         2.534791
 C        -0.885896        -0.523468         1.114176
 C         0.456651         0.226377         0.863882
 C         0.541049         1.136273        -0.272276
 O         1.328007        -0.141292        -0.189812
 C         1.112933         0.544952         2.175891
 H         0.078518        -0.787863         5.139468
 H         0.740388        -2.594763         2.234540
 H         0.218444        -2.503475         3.813807
 H        -1.915593        -1.078807         3.025687
 H        -0.868073        -1.340663         0.406472
 H        -1.744840         0.192567         0.945697
 H        -0.185780         1.145016        -1.097578
 H         0.966202         2.061720        -0.095024
 H         2.255327         0.517855         2.184835
 H         0.899438         1.701670         2.309003
