19
Iteration:  3694charge 0 multiplicity 1
 O         0.336238        -0.176294         4.552414
 C         0.349920        -0.332750         3.236490
 C         0.319428        -1.765602         2.619257
 C        -0.910861        -0.927665         2.597645
 C        -1.086675        -0.240206         1.132053
 C         0.410089         0.269932         0.902977
 C         0.885834         0.909851        -0.350972
 O         1.309918        -0.423803         0.069240
 C         0.816319         0.796541         2.279758
 H         1.131930        -0.587559         4.976381
 H         0.758438        -1.989100         1.571798
 H         0.549742        -2.588488         3.353851
 H        -1.826897        -1.319674         3.082489
 H        -1.372364        -1.036114         0.299413
 H        -1.650115         0.733732         1.048684
 H         0.213519         0.923093        -1.178602
 H         1.807685         1.548227        -0.213860
 H         1.898045         1.041690         2.499306
 H         0.248733         1.773684         2.339586
