19
Iteration:  1163
 O         0.151716        -0.167899         4.737351
 C         0.217554        -0.390979         3.299219
 C         0.350855        -1.757485         2.695026
 C        -0.917115        -0.907887         2.452341
 C        -0.951928        -0.038031         1.120215
 C         0.416766         0.370055         0.888350
 C         1.020693         0.920607        -0.423830
 O         1.083476        -0.502893        -0.156494
 C         1.074525         0.613937         2.384892
 H         1.099639        -0.401528         5.016397
 H         1.186481        -1.831348         1.907732
 H         0.360739        -2.563567         3.416990
 H        -1.867356        -1.329364         2.919449
 H        -1.292643        -0.844619         0.364566
 H        -1.552568         0.925014         1.235298
 H         0.223174         1.105538        -1.230711
 H         1.913330         1.592696        -0.454273
 H         2.181931         0.157533         2.501760
 H         0.937669         1.618341         2.761270
