19
Iteration:  4461charge 0 multiplicity 1
 O         0.393450        -0.058388         4.511725
 C         0.343641        -0.396543         3.156812
 C         0.389321        -1.796288         2.717940
 C        -0.895231        -1.047394         2.539610
 C        -1.029663        -0.358059         1.145002
 C         0.267795         0.363423         0.909090
 C         0.842726         0.938373        -0.305251
 O         1.307681        -0.333141         0.100545
 C         0.838629         0.755535         2.233565
 H         0.793336        -0.829130         4.973611
 H         0.851721        -2.108739         1.768305
 H         0.592127        -2.653576         3.409592
 H        -1.832574        -1.107476         3.083609
 H        -1.471999        -0.942330         0.368650
 H        -1.748860         0.485857         1.301060
 H         0.217422         0.906648        -1.215060
 H         1.556326         1.783702        -0.212417
 H         1.948947         0.942052         2.109470
 H         0.299435         1.703377         2.584750
