19
Iteration:  4057
 O         0.235134        -0.109889         4.576870
 C         0.372232        -0.342230         3.164608
 C         0.419652        -1.791769         2.574677
 C        -0.755717        -1.035391         2.538697
 C        -0.993364        -0.278853         1.199876
 C         0.282754         0.393814         0.922625
 C         0.774610         0.852068        -0.313465
 O         1.290775        -0.391418         0.091716
 C         0.843041         0.805728         2.254179
 H         0.978471        -0.601082         4.976071
 H         1.060392        -1.932368         1.755748
 H         0.417744        -2.643747         3.287743
 H        -1.687346        -1.384244         3.123166
 H        -1.467442        -0.790546         0.339427
 H        -1.684492         0.532867         1.350500
 H         0.150141         0.711515        -1.214823
 H         1.480261         1.665524        -0.331576
 H         1.950027         0.741612         2.173005
 H         0.573202         1.903688         2.480547
