19
Iteration:  1803
 O         0.282526        -0.254559         4.636670
 C         0.325528        -0.397325         3.278139
 C         0.266774        -1.790344         2.700533
 C        -0.948038        -0.771832         2.453690
 C        -1.014997        -0.211890         1.039532
 C         0.339742         0.345056         0.898724
 C         0.891414         0.925601        -0.332710
 O         1.295988        -0.410787         0.029599
 C         0.997257         0.707230         2.302680
 H         0.984166        -0.712182         5.177319
 H         0.959872        -2.047674         1.913175
 H         0.008417        -2.453292         3.487237
 H        -1.860127        -0.996933         3.082359
 H        -1.225797        -1.127432         0.404640
 H        -1.760586         0.781822         0.853677
 H         0.361111         0.963163        -1.328811
 H         1.674286         1.621113        -0.410980
 H         2.095098         0.634902         2.192929
 H         0.718663         1.723080         2.612307
