19
Iteration:  3455charge 0 multiplicity 1
 O         0.237023         0.090181         4.546847
 C         0.324110        -0.458771         3.231966
 C         0.167788        -1.938472         2.898267
 C        -0.953661        -0.955868         2.569046
 C        -0.943749        -0.291369         1.182542
 C         0.502119         0.268585         0.906786
 C         0.846932         1.135369        -0.263119
 O         1.236194        -0.318173        -0.211039
 C         1.133446         0.476985         2.188079
 H        -0.233287        -0.611184         5.030479
 H         0.800825        -2.310338         2.098422
 H        -0.064466        -2.750943         3.658311
 H        -1.829004        -0.890049         3.130885
 H        -1.168735        -0.910419         0.286395
 H        -1.603751         0.539973         1.193018
 H         0.145314         1.418135        -1.087694
 H         1.754809         1.844798        -0.164718
 H         2.238484         0.365530         2.162116
 H         0.973077         1.541417         2.477718
