19
Iteration:  4823
 O         0.448769        -0.026508         4.614331
 C         0.293395        -0.383130         3.224521
 C         0.564481        -1.846926         2.734761
 C        -0.832552        -1.110516         2.528164
 C        -0.943736        -0.529972         1.067643
 C         0.291171         0.344696         0.955379
 C         0.704001         1.008754        -0.424938
 O         1.265961        -0.205298         0.013038
 C         0.730131         0.783782         2.318761
 H        -0.438381         0.138873         5.010403
 H         1.151828        -1.976208         1.762924
 H         0.727691        -2.638084         3.444036
 H        -1.797646        -1.583444         2.833766
 H        -1.057813        -1.356110         0.337115
 H        -1.852678         0.091369         1.168086
 H         0.097388         0.892087        -1.308633
 H         1.362781         1.924012        -0.421347
 H         1.823226         0.725397         2.346958
 H         0.381695         1.719361         2.668940
