19
Iteration:  1210charge 0 multiplicity 1
 O         0.229055         0.030566         4.449174
 C         0.375114        -0.530066         3.224074
 C         0.120878        -1.953616         2.747551
 C        -0.936647        -0.871679         2.527609
 C        -1.014114        -0.177285         1.145280
 C         0.421813         0.328741         0.953014
 C         0.868191         1.006187        -0.278737
 O         1.286176        -0.318030        -0.007919
 C         1.129805         0.487440         2.254406
 H         0.990644        -0.199857         4.971593
 H         0.537285        -2.424555         1.961428
 H        -0.171849        -2.614183         3.544610
 H        -1.705665        -0.754491         3.241261
 H        -1.271945        -0.950626         0.302465
 H        -1.798629         0.553157         1.297408
 H         0.389387         1.210632        -1.237323
 H         1.662700         1.699424        -0.066271
 H         2.302423         0.483189         2.248514
 H         0.745966         1.543546         2.520113
