19
Iteration:  1197charge 0 multiplicity 1
 O         0.143801        -0.068062         4.534551
 C         0.414043        -0.414517         3.118435
 C         0.175644        -1.932657         2.759349
 C        -0.877588        -0.820282         2.521337
 C        -1.006854        -0.143471         1.169988
 C         0.410036         0.266326         0.907055
 C         0.928867         1.020917        -0.198951
 O         1.208135        -0.428715        -0.062297
 C         1.078550         0.551954         2.263013
 H         1.011901        -0.017261         5.036812
 H         0.818689        -2.223860         1.988549
 H         0.130669        -2.590755         3.570559
 H        -1.764665        -0.943032         3.115999
 H        -1.318180        -0.810152         0.283596
 H        -1.600193         0.793488         1.057826
 H         0.227314         1.227432        -1.071147
 H         1.720942         1.742340        -0.088060
 H         2.226292         0.331027         2.031198
 H         0.940914         1.516962         2.759300
