19
Iteration:  1811charge 0 multiplicity 1
 O         0.258635        -0.250089         4.647100
 C         0.285990        -0.346134         3.191125
 C         0.328179        -1.766468         2.725532
 C        -0.920044        -0.861475         2.440665
 C        -1.037650        -0.164756         1.076296
 C         0.425259         0.383831         0.878653
 C         0.930423         0.932390        -0.350883
 O         1.211619        -0.448341         0.096259
 C         0.987006         0.680975         2.301870
 H         1.164034        -0.584698         4.866129
 H         0.987465        -2.130236         1.873948
 H        -0.060806        -2.579469         3.335934
 H        -1.826650        -1.029541         3.078618
 H        -1.290655        -0.855735         0.282195
 H        -1.903525         0.524852         0.915439
 H         0.215624         1.002153        -1.249136
 H         1.799301         1.645034        -0.254376
 H         2.162309         0.638199         2.206908
 H         0.740524         1.663130         2.625978
