19
Iteration:  1293
 O         0.195955         0.005401         4.509131
 C         0.328074        -0.467062         3.200600
 C         0.040943        -1.864295         2.858087
 C        -0.927184        -0.824878         2.581035
 C        -0.900172        -0.401868         1.139671
 C         0.511894         0.315324         0.935268
 C         0.862990         1.146624        -0.255575
 O         1.226784        -0.267081        -0.209193
 C         1.161828         0.413226         2.294265
 H         0.790152        -0.480012         5.160246
 H         0.705215        -2.255774         1.980625
 H        -0.047125        -2.568494         3.694607
 H        -1.850711        -0.786745         3.095611
 H        -0.998344        -1.147115         0.429043
 H        -1.775103         0.255627         0.975660
 H         0.085810         1.384472        -1.069841
 H         1.740793         1.771571        -0.235432
 H         2.186221         0.196708         2.165489
 H         0.961082         1.440843         2.684222
