19
Iteration:  2310
 O         0.290110        -0.063043         4.621812
 C         0.232293        -0.356692         3.188472
 C         0.080122        -1.844867         2.928183
 C        -0.992400        -0.899221         2.532470
 C        -0.925584        -0.399774         1.075546
 C         0.494505         0.295882         0.874655
 C         0.910475         1.130347        -0.216888
 O         1.265136        -0.261521        -0.302507
 C         1.086820         0.484857         2.323232
 H         1.213886        -0.201085         4.825053
 H         0.582737        -2.320565         2.022797
 H         0.028774        -2.474227         3.837969
 H        -2.021686        -0.880440         3.055629
 H        -0.952427        -1.358168         0.502870
 H        -1.771650         0.244106         0.819914
 H         0.038023         1.512220        -0.851120
 H         1.829337         1.758137         0.016888
 H         1.996203        -0.055783         2.355949
 H         1.041004         1.471355         2.555053
