19
Iteration:  3191charge 0 multiplicity 1
 O         0.240955         0.033876         4.578140
 C         0.369203        -0.468879         3.191840
 C         0.132457        -1.895646         2.970993
 C        -0.935501        -0.886867         2.523554
 C        -0.976898        -0.365167         1.121352
 C         0.422773         0.272245         0.821592
 C         0.792891         1.142469        -0.276258
 O         1.322949        -0.223279        -0.202632
 C         1.141603         0.417724         2.267797
 H         0.589402        -0.762002         4.985684
 H         0.755797        -2.351350         2.261822
 H        -0.315294        -2.485912         3.752849
 H        -1.822327        -0.804614         3.131919
 H        -1.075845        -1.111433         0.259243
 H        -1.844404         0.310145         0.883373
 H         0.081840         1.463294        -1.039423
 H         1.445998         1.869868         0.090069
 H         2.229523         0.254089         2.280794
 H         1.083580         1.487515         2.653009
