19
Iteration:  4799
 O         0.317446        -0.050373         4.565052
 C         0.388939        -0.365161         3.141083
 C         0.578213        -1.725006         2.758906
 C        -0.808534        -1.128848         2.427537
 C        -1.009218        -0.435403         1.099799
 C         0.330626         0.331556         0.980005
 C         0.604389         0.949311        -0.318949
 O         1.332017        -0.290420         0.071299
 C         0.802939         0.813415         2.255247
 H         0.274340        -0.965186         4.972801
 H         1.203023        -2.013580         1.880148
 H         0.650242        -2.518125         3.556946
 H        -1.692452        -1.349827         3.045710
 H        -1.105897        -1.113195         0.326303
 H        -1.917052         0.198075         1.185540
 H        -0.247213         0.873572        -1.040763
 H         1.171524         1.826820        -0.418706
 H         1.904419         0.965621         2.417284
 H         0.234369         1.699472         2.497263
