19
Iteration:  1982charge 0 multiplicity 1
 O         0.299114         0.072151         4.584752
 C         0.298081        -0.480088         3.284016
 C         0.045920        -1.862007         3.011360
 C        -0.927636        -0.878016         2.439358
 C        -0.922678        -0.396482         0.987226
 C         0.385880         0.291941         0.885046
 C         0.866850         1.197866        -0.206719
 O         1.261329        -0.205543        -0.258930
 C         1.169335         0.323919         2.316030
 H         0.719440        -0.506462         5.248840
 H         0.530847        -2.537082         2.212572
 H        -0.358111        -2.504972         3.824909
 H        -1.900549        -1.170255         2.944350
 H        -0.867861        -1.208220         0.196508
 H        -1.766695         0.427466         0.727062
 H         0.162508         1.423464        -0.896907
 H         1.737483         1.815907        -0.046171
 H         2.120651         0.046892         2.049711
 H         1.172242         1.417162         2.649798
