19
Iteration:  2361charge 0 multiplicity 1
 O         0.090045         0.095585         4.429093
 C         0.353533        -0.499687         3.193499
 C         0.149893        -1.921331         2.935000
 C        -0.961217        -0.966223         2.549463
 C        -1.003066        -0.278581         1.186659
 C         0.455392         0.341466         0.938948
 C         0.840506         1.118346        -0.213694
 O         1.259486        -0.208863        -0.220020
 C         1.320010         0.325790         2.238217
 H         0.780602        -0.190622         5.087215
 H         0.824745        -2.512390         2.271364
 H        -0.179447        -2.522457         3.801511
 H        -1.888211        -1.114894         3.112530
 H        -1.305095        -0.915606         0.368443
 H        -1.513380         0.660148         1.221107
 H         0.167866         1.282557        -1.003455
 H         1.578115         1.927179        -0.053604
 H         2.265391        -0.248160         2.098983
 H         1.315739         1.440619         2.527840
