19
Iteration:  4122
 O         0.444631        -0.047207         4.577606
 C         0.373039        -0.371114         3.233254
 C         0.388861        -1.782762         2.709707
 C        -0.883543        -1.023060         2.502818
 C        -1.128383        -0.372058         1.149747
 C         0.345436         0.319719         0.900014
 C         0.777628         1.004679        -0.296718
 O         1.360263        -0.338914        -0.039131
 C         0.831593         0.671484         2.273205
 H        -0.345175        -0.492756         4.877169
 H         1.074210        -1.931148         1.909549
 H         0.457075        -2.627011         3.474075
 H        -1.712715        -1.246440         3.278935
 H        -1.294261        -1.108474         0.370862
 H        -1.801380         0.464132         1.232515
 H         0.016357         0.950307        -1.081273
 H         1.562161         1.757338        -0.363439
 H         1.906620         0.894572         2.254064
 H         0.322556         1.578937         2.493674
