19
Iteration:  1628
 O         0.299897        -0.071893         4.541190
 C         0.314328        -0.451849         3.230931
 C        -0.024383        -1.964601         2.981411
 C        -0.954658        -0.782529         2.552759
 C        -0.927840        -0.373270         1.041339
 C         0.420977         0.268961         0.827979
 C         0.824851         1.172127        -0.245555
 O         1.359590        -0.188151        -0.094944
 C         1.124179         0.394192         2.200125
 H         1.206161         0.089529         4.932062
 H         0.632305        -2.449559         2.207274
 H        -0.310559        -2.643525         3.855175
 H        -1.999100        -0.649383         2.980860
 H        -1.103243        -1.334019         0.464042
 H        -1.631327         0.330040         0.779261
 H         0.051100         1.353621        -1.093849
 H         1.523349         2.026958        -0.229010
 H         2.250798         0.263655         2.072021
 H         1.006291         1.441729         2.548552
