19
Iteration:  2916charge 0 multiplicity 1
 O         0.216560         0.001242         4.533158
 C         0.313478        -0.441241         3.241868
 C         0.366911        -1.852268         2.635750
 C        -0.886695        -1.015543         2.358341
 C        -0.945208        -0.080449         1.144038
 C         0.442522         0.364897         0.997968
 C         0.872374         0.873066        -0.303391
 O         1.155012        -0.465596        -0.027854
 C         0.995923         0.635951         2.417499
 H         0.873820        -0.550044         5.046903
 H         1.084786        -2.213559         1.837292
 H         0.179894        -2.562782         3.502719
 H        -1.766581        -1.287835         2.942881
 H        -1.338362        -0.567162         0.173892
 H        -1.609684         0.815798         1.332626
 H         0.116682         1.157955        -1.006495
 H         1.576899         1.714647        -0.426482
 H         2.065688         0.926846         2.520403
 H         0.462640         1.600272         2.810062
