19
Iteration:  4472charge 0 multiplicity 1
 O         0.463683        -0.018405         4.543624
 C         0.294003        -0.363735         3.172562
 C         0.444982        -1.924837         2.677701
 C        -0.890468        -0.927452         2.563119
 C        -1.101136        -0.329439         1.130810
 C         0.303911         0.363086         0.881597
 C         0.803612         0.936704        -0.370682
 O         1.357417        -0.311495         0.103110
 C         0.775343         0.645595         2.264070
 H         0.375110        -0.849587         5.023071
 H         1.058394        -1.999309         1.750909
 H         0.273975        -2.664125         3.514714
 H        -1.655624        -1.291794         3.264696
 H        -1.155385        -1.078949         0.349425
 H        -1.994352         0.353125         1.137384
 H         0.286700         1.172698        -1.339471
 H         1.480694         1.754669        -0.107073
 H         1.897166         0.871167         2.369484
 H         0.247897         1.638820         2.585924
