19
Iteration:  4831
 O         0.432430        -0.038300         4.686634
 C         0.364268        -0.426414         3.213141
 C         0.552633        -1.815076         2.783693
 C        -0.856068        -1.169364         2.479736
 C        -0.997852        -0.541229         1.076942
 C         0.257651         0.375154         0.880111
 C         0.731495         1.028316        -0.400490
 O         1.298574        -0.186213         0.005407
 C         0.739309         0.740380         2.275312
 H        -0.303445         0.566651         4.908415
 H         0.978795        -1.890841         1.756257
 H         0.813376        -2.654152         3.462712
 H        -1.704672        -1.422941         3.105958
 H        -1.048415        -1.307158         0.398552
 H        -1.927781         0.049392         0.972576
 H        -0.093661         1.013368        -1.156580
 H         1.396053         1.834835        -0.402572
 H         1.873621         0.780125         2.410520
 H         0.340074         1.744961         2.501940
