19
Iteration:  3220charge 0 multiplicity 1
 O         0.153822         0.047403         4.515743
 C         0.370889        -0.494728         3.183486
 C         0.151373        -1.933537         2.838649
 C        -0.929897        -0.995692         2.533023
 C        -0.980731        -0.293533         1.190726
 C         0.447075         0.352554         0.896185
 C         0.820175         1.099159        -0.312795
 O         1.262527        -0.265275        -0.060900
 C         1.189618         0.440800         2.265511
 H         1.041858         0.401511         4.646575
 H         0.779816        -2.278152         1.919745
 H        -0.087568        -2.663586         3.628626
 H        -1.851320        -1.067102         3.011224
 H        -1.086648        -0.908028         0.335467
 H        -1.751853         0.423909         1.274279
 H         0.014479         1.436448        -0.972805
 H         1.658917         1.902756        -0.328856
 H         2.226103         0.101838         2.168062
 H         1.073239         1.458754         2.628543
