19
Iteration:   217
 O         0.416343        -0.126188         4.634683
 C         0.212904        -0.341511         3.270109
 C         0.120582        -1.803671         2.849342
 C        -1.050595        -0.808753         2.558571
 C        -0.958029        -0.332325         1.044926
 C         0.426150         0.282466         0.868296
 C         0.883746         0.984994        -0.415133
 O         1.397627        -0.298757        -0.065708
 C         1.001469         0.561043         2.281140
 H         0.825709        -0.985938         4.889638
 H         0.485399        -2.145181         1.913657
 H        -0.069435        -2.495909         3.674158
 H        -2.039784        -0.817540         3.091722
 H        -1.272849        -1.140257         0.279131
 H        -1.757627         0.497831         0.934955
 H         0.171925         1.089171        -1.293710
 H         1.673636         1.725302        -0.421318
 H         2.066115         0.359673         2.423492
 H         0.773376         1.632320         2.646364
