19
Iteration:  2008
 O         0.073244         0.041928         4.576411
 C         0.241114        -0.414798         3.267415
 C         0.135382        -1.864469         2.920141
 C        -0.928647        -0.854191         2.534922
 C        -0.833213        -0.382255         1.146342
 C         0.570721         0.179545         0.902316
 C         0.835268         1.198475        -0.221153
 O         1.166771        -0.171764        -0.356606
 C         1.252526         0.300903         2.295028
 H         0.672937        -0.401309         5.221889
 H         0.670538        -2.347296         2.126569
 H        -0.178292        -2.522522         3.733083
 H        -1.716924        -0.791735         3.224146
 H        -0.878345        -1.176599         0.417087
 H        -1.413926         0.483365         0.987519
 H        -0.186596         1.516732        -0.762653
 H         1.747340         1.770782        -0.452851
 H         2.237537        -0.279377         2.215604
 H         1.423167         1.299647         2.349613
