19
Iteration:  4603charge 0 multiplicity 1
 O         0.267486         0.103591         4.528593
 C         0.346932        -0.406065         3.214670
 C         0.437052        -1.896327         2.922494
 C        -0.791579        -1.059166         2.496100
 C        -0.939513        -0.458853         1.119498
 C         0.349097         0.238385         0.900813
 C         0.671625         1.172253        -0.216622
 O         1.216474        -0.180349        -0.151639
 C         0.998140         0.559994         2.199138
 H        -0.028405        -0.575137         5.184793
 H         1.295806        -2.356917         2.328952
 H         0.106333        -2.721083         3.536839
 H        -1.696228        -1.393576         3.016215
 H        -1.144515        -1.289346         0.502996
 H        -1.896102         0.163262         1.121312
 H        -0.004881         1.198783        -1.065889
 H         1.420992         1.879643        -0.231841
 H         2.094309         0.359877         2.202755
 H         0.757755         1.598438         2.458881
