19
Iteration:  3597
 O         0.220952         0.110341         4.599050
 C         0.325785        -0.392094         3.316649
 C         0.215317        -1.870607         2.973308
 C        -0.846394        -0.923334         2.506925
 C        -0.935761        -0.411561         1.103169
 C         0.432005         0.172569         0.823248
 C         0.857163         1.171393        -0.205028
 O         1.198997        -0.222644        -0.321603
 C         1.124875         0.368237         2.245436
 H        -0.608310        -0.211673         5.008000
 H         0.994504        -2.088936         2.156916
 H        -0.036972        -2.729944         3.578173
 H        -1.829052        -1.206420         2.878746
 H        -1.367912        -1.137585         0.358840
 H        -1.644755         0.373955         1.219092
 H         0.131027         1.535877        -0.949171
 H         1.719432         1.857113         0.234309
 H         2.175840         0.043508         2.168842
 H         1.180994         1.416706         2.460087
