19
Iteration:  3411charge 0 multiplicity 1
 O         0.164269        -0.012114         4.647196
 C         0.269725        -0.429900         3.259649
 C         0.252882        -1.818929         2.731920
 C        -0.883399        -0.993492         2.446036
 C        -0.933469        -0.130483         1.167364
 C         0.424487         0.367705         0.900999
 C         0.896052         0.958793        -0.392762
 O         1.172774        -0.382445        -0.027912
 C         1.109339         0.490555         2.261495
 H         1.075912        -0.098101         4.979556
 H         0.915100        -2.037114         1.894630
 H         0.193686        -2.702857         3.391387
 H        -1.783286        -1.252872         2.946639
 H        -1.296216        -0.805851         0.348170
 H        -1.642665         0.673738         1.291472
 H         0.012776         1.243757        -1.039536
 H         1.811764         1.617459        -0.342309
 H         2.193507         0.219659         2.231738
 H         0.995562         1.547017         2.621430
