19
Iteration:  2721charge 0 multiplicity 1
 O         0.224275         0.256209         4.485745
 C         0.291841        -0.443349         3.277067
 C         0.105099        -1.954766         3.010769
 C        -0.926184        -0.994773         2.549338
 C        -0.890606        -0.436246         1.066925
 C         0.523564         0.243496         0.936462
 C         0.805904         1.307850        -0.160865
 O         1.182782        -0.135087        -0.362127
 C         1.251614         0.138047         2.280793
 H        -0.603984        -0.078091         4.953428
 H         0.723925        -2.451785         2.197506
 H        -0.174014        -2.715439         3.788242
 H        -1.842948        -0.945181         3.000354
 H        -1.043640        -1.166810         0.283378
 H        -1.659998         0.229205         0.972619
 H         0.149698         1.817137        -0.935063
 H         1.820113         1.861432         0.059754
 H         2.158168        -0.462544         2.226685
 H         1.532242         1.090200         2.663855
