19
Iteration:   244
 O         0.272485        -0.155359         4.634866
 C         0.363919        -0.389209         3.271965
 C         0.114638        -1.820862         2.887052
 C        -0.936694        -0.761220         2.509543
 C        -0.861552        -0.367766         1.038487
 C         0.433825         0.316795         0.916049
 C         0.939514         0.990025        -0.352648
 O         1.158378        -0.361915        -0.151847
 C         1.056567         0.707629         2.256287
 H         0.697494        -0.937568         5.086557
 H         0.653767        -2.437777         2.088999
 H        -0.312211        -2.429991         3.729151
 H        -1.889400        -0.835052         2.981921
 H        -0.932122        -1.252490         0.352895
 H        -1.734232         0.175060         0.708554
 H         0.121434         1.204617        -1.038340
 H         1.830831         1.739883        -0.176415
 H         2.156149         0.737307         2.370577
 H         0.697867         1.634438         2.570597
