19
Iteration:  2028charge 0 multiplicity 1
 O         0.000223         0.015446         4.540083
 C         0.361735        -0.454156         3.208102
 C         0.134030        -1.876157         2.948795
 C        -0.899168        -0.823181         2.503939
 C        -0.905833        -0.297898         1.118141
 C         0.540247         0.222486         0.912601
 C         0.725498         1.162984        -0.160373
 O         1.225067        -0.245448        -0.320143
 C         1.369153         0.292804         2.252757
 H         0.720261         0.045163         5.159353
 H         0.890252        -2.353523         2.294264
 H        -0.038472        -2.547855         3.824525
 H        -1.840229        -0.679717         3.018843
 H        -1.187277        -1.026568         0.296648
 H        -1.687472         0.606272         1.068678
 H        -0.099001         1.367846        -0.838946
 H         1.434405         1.829969         0.195272
 H         2.326383        -0.200537         2.243697
 H         1.466592         1.341879         2.522978
