19
Iteration:  3251
 O         0.233582        -0.123729         4.652160
 C         0.269962        -0.437927         3.259115
 C         0.313836        -1.760146         2.804287
 C        -0.902071        -0.901521         2.439956
 C        -0.961373        -0.147373         1.079863
 C         0.478893         0.218398         0.934378
 C         0.854783         1.046104        -0.309911
 O         1.183148        -0.399129        -0.122284
 C         1.045684         0.490368         2.275955
 H         0.409146         0.849133         4.712589
 H         1.041120        -2.041399         1.937484
 H         0.205568        -2.596976         3.499921
 H        -1.823851        -1.275901         2.841781
 H        -1.250808        -0.757299         0.254003
 H        -1.640758         0.679752         1.394305
 H        -0.050371         1.421912        -0.751267
 H         1.818878         1.695816        -0.227554
 H         2.131708         0.209643         2.263457
 H         0.798415         1.498201         2.519491
