19
Iteration:    91charge 0 multiplicity 1
 O         0.229769         0.022505         4.512966
 C         0.374787        -0.468627         3.178467
 C         0.200377        -1.898435         2.669387
 C        -0.923227        -0.908898         2.461220
 C        -0.965728        -0.109390         1.181703
 C         0.437605         0.374286         0.968653
 C         0.804168         0.945220        -0.394268
 O         1.248505        -0.453313         0.084175
 C         1.076961         0.552899         2.311450
 H         0.568581        -0.558578         5.181197
 H         0.871130        -2.205566         1.823566
 H         0.113763        -2.790861         3.370584
 H        -1.837795        -1.039144         3.075076
 H        -1.189576        -0.667831         0.322056
 H        -1.552109         0.831684         1.300724
 H         0.077312         1.074403        -1.168833
 H         1.736885         1.621660        -0.272668
 H         2.220217         0.626116         2.276563
 H         0.783037         1.578275         2.743592
