19
Iteration:  3361
 O         0.379199        -0.271240         4.616836
 C         0.312830        -0.356169         3.181865
 C         0.207591        -1.769038         2.641575
 C        -1.008572        -0.799727         2.505963
 C        -1.004486        -0.168906         1.123404
 C         0.388215         0.260052         0.823238
 C         0.956297         0.904681        -0.333464
 O         1.297851        -0.436602         0.108261
 C         0.878880         0.735489         2.291123
 H         1.282762        -0.234369         4.942278
 H         0.765183        -2.221928         1.816777
 H        -0.047535        -2.487237         3.530647
 H        -1.821972        -1.016461         3.167028
 H        -1.505962        -0.655562         0.314567
 H        -1.573048         0.799556         1.414357
 H         0.470539         0.844357        -1.279046
 H         1.805874         1.607499        -0.435553
 H         1.980751         0.690755         2.312640
 H         0.546866         1.735898         2.540030
