19
Iteration:  4436charge 0 multiplicity 1
 O         0.288139        -0.198876         4.577601
 C         0.302391        -0.348692         3.189016
 C         0.483622        -1.745786         2.682053
 C        -0.815632        -1.005348         2.466263
 C        -1.048279        -0.263633         1.112141
 C         0.353854         0.393852         0.948866
 C         0.748663         0.890997        -0.367954
 O         1.218655        -0.424329         0.077441
 C         0.941348         0.777201         2.311322
 H         1.139320         0.155774         4.859794
 H         1.122374        -2.258189         1.970663
 H         0.377310        -2.486290         3.510940
 H        -1.715624        -1.316655         2.975623
 H        -1.305922        -0.942667         0.321268
 H        -1.906195         0.499787         1.187430
 H         0.067644         1.031966        -1.129642
 H         1.559109         1.620423        -0.264650
 H         2.059777         0.939340         2.271914
 H         0.405386         1.759969         2.445398
