19
Iteration:  5000
 O         0.383041        -0.024582         4.563284
 C         0.295336        -0.375009         3.191393
 C         0.618881        -1.719484         2.894194
 C        -0.838383        -1.247431         2.537897
 C        -0.864132        -0.620248         1.024543
 C         0.322926         0.317390         0.935723
 C         0.496114         1.063613        -0.293532
 O         1.289117        -0.135350        -0.033463
 C         0.828187         0.735449         2.233857
 H        -0.460817        -0.209070         5.005572
 H         1.248768        -1.981970         2.058665
 H         0.676149        -2.287101         3.796725
 H        -1.685321        -1.666264         3.026694
 H        -0.873542        -1.231888         0.078832
 H        -1.671723         0.029891         0.834065
 H        -0.214628         1.036413        -1.245873
 H         1.097066         2.000020        -0.362776
 H         1.928921         0.733933         2.281030
 H         0.408903         1.711863         2.490377
