19
Iteration:  4967charge 0 multiplicity 1
 O         0.166713         0.082551         4.585926
 C         0.416567        -0.428048         3.298616
 C         0.603524        -1.823009         2.831912
 C        -0.759601        -1.115160         2.567976
 C        -0.909660        -0.660159         1.097163
 C         0.290452         0.265491         0.910197
 C         0.579521         1.126049        -0.306348
 O         1.271373        -0.090025        -0.163753
 C         0.827029         0.626212         2.216815
 H         0.954916        -0.129863         5.153850
 H         1.351279        -2.143239         2.137653
 H         0.344673        -2.653728         3.490531
 H        -1.474437        -1.615011         3.208959
 H        -0.910605        -1.426351         0.290306
 H        -1.753010        -0.017437         1.012394
 H        -0.065881         1.191306        -1.256478
 H         1.312514         1.981230        -0.150839
 H         1.888935         0.952019         2.169677
 H         0.269924         1.518038         2.516645
