19
Iteration:  4270
 O         0.327145         0.092525         4.531010
 C         0.252663        -0.452813         3.272995
 C         0.342534        -1.902922         3.001321
 C        -0.834510        -0.959742         2.524470
 C        -0.888441        -0.548626         1.102031
 C         0.420680         0.387866         0.880200
 C         0.620659         1.138439        -0.325408
 O         1.259338        -0.125085        -0.279469
 C         1.064587         0.431566         2.346931
 H        -0.373668        -0.355638         4.983031
 H         0.851951        -2.390381         2.161948
 H         0.181707        -2.812319         3.697745
 H        -1.792567        -1.046109         3.074260
 H        -0.906513        -1.397576         0.353502
 H        -1.808771         0.083994         1.070405
 H        -0.198145         1.143311        -1.097795
 H         1.182800         2.003677        -0.465217
 H         2.161119         0.177966         2.281089
 H         1.094884         1.428145         3.003370
