19
Iteration:     4
 O         0.253245        -0.119542         4.566095
 C         0.330242        -0.402435         3.234140
 C         0.228560        -1.817224         2.735550
 C        -0.932264        -0.862697         2.495962
 C        -0.997387        -0.233196         1.124535
 C         0.419210         0.323147         0.940704
 C         0.888526         0.963395        -0.292678
 O         1.254115        -0.404905        -0.036769
 C         1.022570         0.601694         2.281463
 H         1.098691        -0.383793         4.950886
 H         0.816790        -2.089393         1.807704
 H         0.053505        -2.513645         3.542823
 H        -1.902129        -0.977033         3.013869
 H        -1.208235        -0.838438         0.247081
 H        -1.784990         0.684869         1.036778
 H         0.249266         1.067147        -1.179986
 H         1.709416         1.839871        -0.280684
 H         2.149263         0.483835         2.271039
 H         0.690184         1.662751         2.614072
