19
Iteration:  3851
 O         0.323844         0.002646         4.519843
 C         0.318226        -0.391737         3.227331
 C         0.208443        -1.955417         2.979393
 C        -0.961030        -0.983923         2.480178
 C        -0.942140        -0.480904         1.139017
 C         0.460137         0.197739         0.910515
 C         0.675732         1.164441        -0.240261
 O         1.298623        -0.136831        -0.199424
 C         1.075956         0.506198         2.247928
 H         0.857228         0.841852         4.690280
 H         0.930010        -2.389468         2.314509
 H        -0.098925        -2.449377         3.770791
 H        -1.904107        -1.070618         2.980279
 H        -0.940742        -1.213422         0.330498
 H        -1.839285         0.083548         0.852894
 H        -0.103927         1.378749        -1.022882
 H         1.469395         1.838398        -0.042338
 H         2.140681         0.352664         2.207557
 H         1.013491         1.521207         2.583794
