19
Iteration:  4559charge 0 multiplicity 1
 O         0.138078        -0.024034         4.669902
 C         0.319835        -0.391902         3.282153
 C         0.426377        -1.948332         2.781852
 C        -0.794428        -1.015542         2.558684
 C        -0.946216        -0.457112         1.186505
 C         0.400530         0.327437         0.878743
 C         0.655541         1.137741        -0.374500
 O         1.256580        -0.265167        -0.158452
 C         1.056704         0.641511         2.223228
 H         0.725508         0.742643         4.800554
 H         1.119475        -2.468644         2.008757
 H         0.255408        -2.728807         3.546506
 H        -1.635983        -1.604571         2.940927
 H        -1.244478        -1.108927         0.408790
 H        -1.738249         0.391513         1.180332
 H        -0.187223         1.370851        -1.032690
 H         1.375169         1.886018        -0.320959
 H         2.133012         0.328094         2.050754
 H         0.964786         1.717011         2.521887
