19
Iteration:  3576charge 0 multiplicity 1
 O         0.205026         0.113928         4.519255
 C         0.290093        -0.408630         3.192104
 C         0.256809        -1.860502         3.039688
 C        -0.974786        -0.928302         2.482426
 C        -0.900340        -0.415230         1.019140
 C         0.472510         0.325657         0.958104
 C         0.798740         1.197366        -0.197183
 O         1.148383        -0.235598        -0.267871
 C         1.204708         0.303340         2.249770
 H         0.128289        -0.506604         5.293832
 H         0.938672        -2.507037         2.361369
 H         0.110331        -2.412021         3.955055
 H        -1.862826        -1.084714         3.127144
 H        -0.838496        -1.273689         0.319685
 H        -1.761742         0.140423         0.737731
 H        -0.009946         1.611253        -0.831001
 H         1.850252         1.740535        -0.068971
 H         2.186139        -0.198864         2.298309
 H         1.331293         1.311152         2.568632
