19
Iteration:  3449
 O         0.218751         0.059667         4.518123
 C         0.315682        -0.429814         3.211794
 C         0.207387        -1.900493         2.911156
 C        -0.934076        -0.963877         2.537892
 C        -0.938964        -0.225135         1.195411
 C         0.484847         0.219823         0.867298
 C         0.841659         1.079390        -0.272111
 O         1.252458        -0.294866        -0.189969
 C         1.122455         0.434172         2.210563
 H        -0.103064        -0.584337         5.137242
 H         0.931636        -2.213191         2.134266
 H        -0.113287        -2.592437         3.669430
 H        -1.837179        -0.945535         3.247792
 H        -1.267146        -0.787615         0.318738
 H        -1.665827         0.682161         1.295515
 H         0.096477         1.497166        -0.921269
 H         1.655949         1.729204        -0.118372
 H         2.226269         0.373188         2.196109
 H         0.859075         1.459551         2.561413
