19
Iteration:  3513charge 0 multiplicity 1
 O         0.407251        -0.058930         4.612191
 C         0.232837        -0.352220         3.211714
 C        -0.011264        -1.835264         2.988235
 C        -1.009387        -0.914084         2.530708
 C        -0.938684        -0.515920         1.051671
 C         0.522505         0.161867         0.880554
 C         0.672625         1.121871        -0.239316
 O         1.443843        -0.101354        -0.265357
 C         1.147064         0.398352         2.250190
 H         0.280539         0.928236         4.625495
 H         0.557680        -2.569429         2.333047
 H        -0.216160        -2.290350         3.937430
 H        -1.922097        -0.647637         3.147001
 H        -1.147614        -1.267691         0.310777
 H        -1.676925         0.344156         0.853220
 H        -0.028857         1.412054        -1.007241
 H         1.327585         1.875737         0.159573
 H         2.143487        -0.119064         2.355933
 H         1.194212         1.544018         2.369072
