19
Iteration:  2433
 O         0.260060        -0.109723         4.556658
 C         0.259288        -0.384120         3.204377
 C         0.160521        -1.817296         2.798069
 C        -1.025179        -0.803345         2.617361
 C        -0.948707        -0.345743         1.124055
 C         0.462882         0.212362         0.887456
 C         0.985860         1.072729        -0.182654
 O         1.223227        -0.315723        -0.160337
 C         1.057026         0.566149         2.198060
 H         1.009121        -0.577379         4.959999
 H         0.706086        -2.235630         2.012578
 H         0.218990        -2.475961         3.665296
 H        -1.959099        -0.980697         2.988695
 H        -0.984610        -1.141607         0.349787
 H        -1.652491         0.466573         0.835961
 H         0.237483         1.481181        -0.983865
 H         1.761264         1.780752         0.147631
 H         2.103371         0.333700         2.101517
 H         0.906340         1.571084         2.543314
