19
Iteration:  3726
 O         0.413035        -0.065574         4.484101
 C         0.329854        -0.374535         3.171675
 C         0.426511        -1.816446         2.656517
 C        -0.843928        -1.030685         2.429195
 C        -1.118883        -0.148577         1.122699
 C         0.273941         0.457570         0.915307
 C         0.906623         0.872190        -0.350679
 O         1.215384        -0.409951         0.253099
 C         0.866536         0.685582         2.303015
 H         0.316948        -0.790150         5.139256
 H         1.172582        -2.211019         1.893696
 H         0.331868        -2.592773         3.467138
 H        -1.737953        -1.570446         2.801683
 H        -1.404518        -0.896662         0.293919
 H        -1.980750         0.575406         1.221472
 H         0.429135         0.914812        -1.268370
 H         1.774225         1.526584        -0.417783
 H         1.983972         0.627036         2.280893
 H         0.480318         1.713919         2.552532
