19
Iteration:   200charge 0 multiplicity 1
 O         0.403336        -0.016684         4.534961
 C         0.298373        -0.409901         3.178984
 C         0.056784        -1.821869         2.728204
 C        -1.023156        -0.811395         2.468896
 C        -1.053130        -0.242681         1.127460
 C         0.440184         0.220600         0.936066
 C         0.761106         0.971673        -0.295971
 O         1.492538        -0.328189         0.030202
 C         1.006604         0.518555         2.284153
 H         1.035370        -0.552880         5.075427
 H         0.851113        -2.231632         2.056222
 H        -0.149500        -2.577910         3.560194
 H        -1.907036        -1.047724         3.011353
 H        -1.378849        -0.928327         0.362943
 H        -1.629691         0.619369         0.934042
 H         0.157615         0.758054        -1.118691
 H         1.377163         1.924326        -0.096266
 H         2.095089         0.367633         2.153719
 H         0.886107         1.514819         2.610674
