19
Iteration:  4044charge 0 multiplicity 1
 O         0.222509        -0.196300         4.553025
 C         0.300228        -0.340500         3.178118
 C         0.508683        -1.783909         2.675353
 C        -0.885296        -0.992425         2.489146
 C        -1.028347        -0.248703         1.245538
 C         0.394806         0.295269         0.933089
 C         0.734852         0.934453        -0.419714
 O         1.313444        -0.386244         0.113862
 C         0.912843         0.774724         2.222560
 H         1.139066        -0.110176         4.942853
 H         1.000162        -2.010926         1.625914
 H         0.627657        -2.546650         3.478155
 H        -1.795655        -1.189443         3.115252
 H        -1.378361        -0.884862         0.497736
 H        -1.712513         0.539378         1.448178
 H        -0.079926         0.939324        -1.202504
 H         1.404334         1.750663        -0.510995
 H         2.001250         0.907584         2.220222
 H         0.470347         1.674317         2.555834
