19
Iteration:  3348
 O         0.449337        -0.189289         4.601735
 C         0.202260        -0.393990         3.219824
 C         0.191674        -1.787230         2.655634
 C        -0.998015        -0.872289         2.508888
 C        -1.128512        -0.087371         1.154498
 C         0.403241         0.359470         0.907254
 C         0.970531         0.852373        -0.461102
 O         1.408631        -0.448362         0.098898
 C         0.871625         0.668976         2.334253
 H         1.383154        -0.541051         4.648943
 H         0.791484        -1.974069         1.727869
 H         0.140317        -2.681820         3.345752
 H        -1.922254        -1.105491         2.897937
 H        -1.597396        -0.766138         0.402284
 H        -1.664142         0.951994         1.064584
 H         0.367595         0.848233        -1.297912
 H         1.684838         1.656186        -0.199827
 H         2.000901         0.702443         2.387056
 H         0.444306         1.649779         2.715969
