19
Iteration:  4890
 O         0.188859         0.078645         4.571216
 C         0.397189        -0.403829         3.288007
 C         0.531727        -1.830192         2.832570
 C        -0.768886        -1.136134         2.491506
 C        -0.929401        -0.576125         1.188161
 C         0.333128         0.299998         0.887676
 C         0.574380         1.066689        -0.396924
 O         1.267275        -0.122736        -0.143948
 C         0.929595         0.679846         2.302658
 H         0.581289        -0.660959         5.097424
 H         1.225544        -1.944472         2.020174
 H         0.430592        -2.672658         3.544230
 H        -1.607311        -1.711358         2.961631
 H        -0.948690        -1.470679         0.445158
 H        -1.797062         0.060183         0.986222
 H        -0.241597         0.951953        -1.131793
 H         1.233430         2.013616        -0.249332
 H         2.001069         0.765726         2.417146
 H         0.517417         1.609478         2.671195
