19
Iteration:  1913
 O         0.300398        -0.148932         4.659306
 C         0.309550        -0.396389         3.291408
 C         0.176636        -1.821631         2.781205
 C        -0.984123        -0.798252         2.493710
 C        -0.919517        -0.270240         1.013497
 C         0.473179         0.315829         0.883278
 C         0.782350         1.026187        -0.364816
 O         1.305870        -0.348712        -0.052055
 C         1.017202         0.582862         2.300376
 H         0.912237        -0.739067         5.111599
 H         0.733230        -2.218406         2.013991
 H        -0.160055        -2.622998         3.399668
 H        -1.922216        -0.950792         2.935205
 H        -0.958968        -1.065490         0.245304
 H        -1.612994         0.629869         1.031156
 H         0.053605         0.919908        -1.187668
 H         1.625808         1.668294        -0.252212
 H         2.137019         0.462808         2.385937
 H         0.735525         1.643901         2.545727
