19
Iteration:  3296charge 0 multiplicity 1
 O         0.372764        -0.217001         4.545932
 C         0.379230        -0.397327         3.124745
 C         0.233951        -1.787270         2.720635
 C        -0.953402        -0.845931         2.538252
 C        -1.042524        -0.201738         1.140088
 C         0.399025         0.423484         0.928873
 C         0.946151         0.967732        -0.317106
 O         1.218160        -0.469286         0.082534
 C         0.996948         0.670487         2.256071
 H        -0.479648        -0.557647         4.869177
 H         0.829413        -2.197783         1.859817
 H         0.058850        -2.560987         3.536781
 H        -1.796577        -0.795116         3.153349
 H        -1.141063        -0.916216         0.366586
 H        -1.692273         0.668293         1.013183
 H         0.252448         0.922967        -1.185534
 H         1.894132         1.581889        -0.481770
 H         2.094609         0.711341         2.312054
 H         0.526380         1.588857         2.532902
