19
Iteration:  4769charge 0 multiplicity 1
 O         0.172678        -0.172688         4.632463
 C         0.393343        -0.376547         3.219225
 C         0.586511        -1.711564         2.690574
 C        -0.732051        -1.102298         2.500986
 C        -1.028945        -0.411907         1.253672
 C         0.340736         0.394082         0.869518
 C         0.696649         0.945714        -0.457386
 O         1.287819        -0.289261         0.039415
 C         0.795913         0.780216         2.244587
 H         1.011501         0.313091         4.789068
 H         1.288389        -1.953784         1.859479
 H         0.500201        -2.519368         3.405937
 H        -1.639908        -1.403834         3.037325
 H        -1.175576        -1.259417         0.487285
 H        -2.036734         0.088186         1.345611
 H         0.080312         0.931805        -1.355489
 H         1.288953         1.877609        -0.399885
 H         1.863646         0.842881         2.398007
 H         0.330252         1.682176         2.558806
