19
Iteration:  4860charge 0 multiplicity 1
 O         0.267267        -0.112311         4.535471
 C         0.355184        -0.353963         3.147264
 C         0.588399        -1.819954         2.880717
 C        -0.769409        -1.039143         2.486293
 C        -0.938902        -0.565438         1.137824
 C         0.305952         0.233734         0.823127
 C         0.628412         1.034109        -0.230498
 O         1.272883        -0.162909        -0.029758
 C         0.786142         0.755875         2.265236
 H         0.899614         0.624364         4.728141
 H         1.114700        -2.218187         2.056068
 H         0.549123        -2.471896         3.780999
 H        -1.609276        -1.507643         2.976070
 H        -1.287887        -1.412662         0.359227
 H        -1.745177         0.191046         0.980570
 H        -0.087723         1.189087        -1.101519
 H         1.241029         1.944363        -0.035506
 H         1.878357         0.740533         2.304853
 H         0.442364         1.803159         2.465227
