19
Iteration:  4017charge 0 multiplicity 1
 O         0.311542        -0.197580         4.666873
 C         0.344341        -0.382776         3.266388
 C         0.386341        -1.821413         2.753421
 C        -0.808693        -0.942745         2.440358
 C        -0.949952        -0.310308         1.128201
 C         0.319423         0.381583         0.948165
 C         0.743968         0.921633        -0.426457
 O         1.283058        -0.355246        -0.088049
 C         0.880051         0.721995         2.328502
 H         0.646333         0.681534         4.921831
 H         1.074560        -2.109839         2.032735
 H         0.223873        -2.588214         3.517600
 H        -1.759189        -1.161381         2.946811
 H        -1.215235        -1.041167         0.264376
 H        -1.901274         0.352598         1.180395
 H        -0.050341         1.030200        -1.149948
 H         1.391655         1.852404        -0.511141
 H         1.972226         0.715446         2.201599
 H         0.628409         1.711237         2.800000
