19
Iteration:  4216
 O         0.245522         0.139305         4.528386
 C         0.359090        -0.432003         3.178857
 C         0.413592        -1.898488         2.917077
 C        -0.878382        -1.029885         2.618665
 C        -0.968227        -0.436786         1.147218
 C         0.376661         0.174838         0.936349
 C         0.726486         1.173737        -0.186626
 O         1.249818        -0.145936        -0.310137
 C         1.031720         0.437100         2.205200
 H        -0.622735        -0.119339         4.823662
 H         1.141193        -2.172965         2.115472
 H         0.449476        -2.710807         3.801891
 H        -1.795860        -1.322860         3.203971
 H        -0.943506        -1.345676         0.580837
 H        -1.820571         0.314144         1.068014
 H         0.029207         1.442964        -1.048080
 H         1.468076         1.895956         0.050733
 H         2.124282         0.211420         2.086516
 H         0.823752         1.484871         2.738573
