19
Iteration:  4004
 O         0.364273        -0.134177         4.740202
 C         0.305467        -0.395446         3.228095
 C         0.344862        -1.865395         2.775233
 C        -0.886219        -1.039850         2.487887
 C        -0.932756        -0.374702         1.107067
 C         0.398341         0.430082         0.861108
 C         0.713453         1.034095        -0.347605
 O         1.216237        -0.318496        -0.051904
 C         1.008055         0.680712         2.230999
 H         0.187727         0.823583         4.739445
 H         0.900145        -2.098014         1.962844
 H         0.134474        -2.647368         3.496934
 H        -1.905897        -1.353308         2.928370
 H        -0.911911        -1.263194         0.336673
 H        -1.798692         0.365203         0.956664
 H         0.005391         1.051015        -1.163964
 H         1.603737         1.637446        -0.365552
 H         2.122339         0.795578         2.263670
 H         0.471680         1.715534         2.452931
