19
Iteration:  2893charge 0 multiplicity 1
 O         0.154009        -0.015852         4.540191
 C         0.227824        -0.384821         3.257326
 C         0.422902        -1.844685         2.811915
 C        -0.863472        -0.946827         2.410356
 C        -0.954507        -0.173917         1.118669
 C         0.445161         0.313925         0.935126
 C         0.797113         1.062680        -0.288524
 O         1.187358        -0.417422        -0.020930
 C         1.103662         0.512609         2.294312
 H         0.531047        -0.722533         5.054515
 H         1.009043        -2.120948         1.907824
 H         0.083809        -2.686984         3.410108
 H        -1.705346        -1.302238         2.885104
 H        -1.438284        -0.764382         0.271142
 H        -1.563680         0.770593         1.316407
 H         0.106150         1.138900        -1.041491
 H         1.567219         1.742921        -0.546030
 H         2.163419         0.181847         2.228136
 H         1.140962         1.653560         2.465183
