19
Iteration:   108charge 0 multiplicity 1
 O         0.114212        -0.049760         4.587409
 C         0.279551        -0.396495         3.222051
 C         0.347297        -1.780760         2.685281
 C        -0.873486        -0.897939         2.513635
 C        -0.995171        -0.100157         1.193464
 C         0.475102         0.325532         0.986952
 C         0.949368         0.900520        -0.305968
 O         1.156664        -0.480775        -0.175296
 C         1.100318         0.590366         2.327274
 H         0.565406        -0.721181         5.080661
 H         0.909711        -1.970989         1.774638
 H         0.293998        -2.589186         3.337901
 H        -1.787283        -1.047696         3.098268
 H        -1.514898        -0.674288         0.328708
 H        -1.653768         0.773507         1.439979
 H         0.054971         1.022850        -1.022894
 H         1.755024         1.535028        -0.442783
 H         2.115891         0.296528         2.400146
 H         1.031403         1.593344         2.662009
