19
Iteration:   402
 O         0.545791         0.047450         4.478383
 C         0.276223        -0.444225         3.146848
 C         0.045916        -1.897242         2.822945
 C        -1.003837        -0.897470         2.453832
 C        -0.934045        -0.281946         1.065469
 C         0.417808         0.336327         0.917866
 C         0.761094         0.958605        -0.318118
 O         1.401497        -0.278923         0.073537
 C         0.964350         0.522732         2.349286
 H         0.081646        -0.663560         4.973360
 H         0.682430        -2.338237         2.047711
 H        -0.313319        -2.533176         3.623065
 H        -1.875831        -0.971911         3.053396
 H        -1.088990        -1.036422         0.322890
 H        -1.676856         0.532921         0.947445
 H        -0.110956         0.871479        -1.155402
 H         1.450574         1.884331        -0.387249
 H         2.029644         0.297372         2.353578
 H         0.857435         1.530553         2.857873
