19
Iteration:  2609
 O         0.196466        -0.129630         4.563088
 C         0.338825        -0.382768         3.188456
 C         0.161380        -1.857667         2.857095
 C        -1.003380        -0.831850         2.564367
 C        -0.976701        -0.301527         1.140750
 C         0.476263         0.287252         0.873915
 C         0.818706         1.053021        -0.332319
 O         1.360242        -0.280173        -0.109309
 C         1.079678         0.523602         2.265751
 H         1.032654        -0.285264         5.057030
 H         0.719681        -2.182243         1.979099
 H        -0.079259        -2.524179         3.655533
 H        -1.907752        -0.877595         3.330897
 H        -1.190267        -1.151767         0.482180
 H        -1.694961         0.410916         0.940788
 H         0.050653         1.025767        -1.135500
 H         1.524080         1.974875        -0.098452
 H         2.080873         0.164291         2.070365
 H         1.323565         1.546099         2.483975
