19
Iteration:  1414charge 0 multiplicity 1
 O         0.453941        -0.115431         4.626103
 C         0.192128        -0.372235         3.250535
 C         0.096719        -1.787563         2.856047
 C        -1.069267        -0.885417         2.491981
 C        -0.954103        -0.278665         1.077559
 C         0.450095         0.338734         0.903008
 C         0.844899         0.979100        -0.348660
 O         1.431220        -0.265918        -0.107554
 C         0.990214         0.518779         2.297965
 H         0.533905        -0.939430         5.078396
 H         0.589547        -2.342622         2.085968
 H        -0.329937        -2.519439         3.573965
 H        -2.104089        -1.103038         2.915616
 H        -1.224969        -0.792481         0.212534
 H        -1.570622         0.647425         1.043672
 H         0.172597         0.923287        -1.258222
 H         1.607544         1.707178        -0.442182
 H         2.047451         0.199746         2.268444
 H         1.024333         1.598452         2.612099
