19
Iteration:   732charge 0 multiplicity 1
 O         0.490181        -0.105692         4.607113
 C         0.236688        -0.388316         3.184431
 C         0.065623        -1.836315         2.756006
 C        -1.032368        -0.771697         2.427096
 C        -0.989397        -0.285736         1.048893
 C         0.451403         0.296244         0.919999
 C         0.868668         0.965890        -0.288529
 O         1.372649        -0.384973         0.026158
 C         0.922392         0.619190         2.312840
 H         1.254593        -0.689373         4.755712
 H         0.730655        -2.152406         2.000985
 H        -0.252019        -2.589014         3.435996
 H        -1.900459        -0.967486         3.023555
 H        -1.225120        -0.994118         0.287681
 H        -1.724862         0.617471         0.953878
 H         0.111796         0.971906        -1.056670
 H         1.584026         1.795298        -0.162858
 H         2.011287         0.346943         2.438368
 H         0.840124         1.744018         2.590918
