19
Iteration:  4087charge 0 multiplicity 1
 O         0.458927        -0.057278         4.537244
 C         0.296475        -0.361991         3.189221
 C         0.500030        -1.773312         2.698133
 C        -0.821772        -1.024564         2.440307
 C        -1.029978        -0.300596         1.096850
 C         0.327634         0.412228         0.925924
 C         0.885801         0.991507        -0.334348
 O         1.128198        -0.433244         0.154813
 C         0.760021         0.704074         2.285178
 H         0.187014        -0.799326         5.075248
 H         1.350168        -1.803338         1.902259
 H         0.459412        -2.649197         3.447919
 H        -1.773446        -1.401614         2.943854
 H        -1.222623        -0.986507         0.325782
 H        -1.998321         0.234230         1.125830
 H         0.165361         0.965018        -1.211569
 H         1.738566         1.598785        -0.536292
 H         1.825328         0.743166         2.446543
 H         0.365688         1.606750         2.523510
