19
Iteration:  2237charge 0 multiplicity 1
 O         0.319991        -0.098761         4.609953
 C         0.259888        -0.370002         3.197915
 C         0.241323        -1.808889         2.707614
 C        -0.939162        -0.916227         2.454250
 C        -0.980523        -0.164424         1.118873
 C         0.487510         0.315527         0.920093
 C         0.854255         1.039724        -0.373134
 O         1.254192        -0.450661        -0.006656
 C         0.983678         0.561915         2.358315
 H         0.835741        -0.796783         5.101162
 H         0.931537        -2.186899         1.980264
 H         0.109200        -2.455228         3.534368
 H        -1.857178        -1.053806         3.091328
 H        -1.390914        -0.646975         0.194414
 H        -1.760057         0.684789         1.234339
 H         0.035340         0.999179        -1.089497
 H         1.676378         1.665330        -0.482309
 H         2.112824         0.353835         2.333049
 H         0.743658         1.757010         2.569903
