19
Iteration:  2285charge 0 multiplicity 1
 O         0.258662        -0.102319         4.600721
 C         0.375692        -0.461351         3.187415
 C         0.066708        -1.854065         2.922798
 C        -0.958196        -0.785498         2.518609
 C        -0.947808        -0.323837         1.092349
 C         0.449508         0.272096         0.866131
 C         0.749937         1.072185        -0.346658
 O         1.380413        -0.211164        -0.059812
 C         1.120226         0.474888         2.228962
 H         1.023285        -0.505177         5.002205
 H         0.456343        -2.384710         2.016607
 H        -0.318364        -2.567754         3.703732
 H        -1.888625        -0.851126         3.002851
 H        -1.217669        -1.161934         0.439713
 H        -1.714863         0.411057         0.815424
 H         0.075870         1.066006        -1.185109
 H         1.505815         1.888510        -0.136250
 H         2.225510         0.313871         2.183255
 H         0.865723         1.502939         2.593912
