19
Iteration:  4698
 O         0.303083         0.030814         4.539139
 C         0.322045        -0.412603         3.218828
 C         0.483896        -1.834057         2.810101
 C        -0.831360        -1.076118         2.517577
 C        -0.939880        -0.529995         1.202797
 C         0.256558         0.319441         0.930913
 C         0.689506         1.085509        -0.418545
 O         1.306591        -0.206101        -0.099245
 C         0.881962         0.654894         2.342699
 H         0.415530        -0.655178         5.223967
 H         0.946229        -2.144768         1.858436
 H         0.606433        -2.569844         3.554429
 H        -1.755058        -1.233688         3.086865
 H        -1.099276        -1.186461         0.360296
 H        -1.751419         0.198502         1.227722
 H         0.248723         0.958037        -1.406301
 H         1.304920         2.059177        -0.374328
 H         1.981074         0.710818         2.153711
 H         0.503192         1.613903         2.749144
