19
Iteration:  2292charge 0 multiplicity 1
 O         0.272387        -0.125952         4.582838
 C         0.301705        -0.409412         3.207741
 C         0.072938        -1.874832         2.920838
 C        -1.022559        -0.760990         2.562052
 C        -0.894580        -0.372416         1.073097
 C         0.460996         0.243281         0.868462
 C         0.799137         1.119637        -0.320974
 O         1.329286        -0.212305        -0.102473
 C         1.130437         0.453348         2.230283
 H         1.069423        -0.397230         5.036499
 H         0.665903        -2.365701         2.192777
 H        -0.172449        -2.520019         3.740015
 H        -1.970839        -0.851627         3.089777
 H        -0.981025        -1.195202         0.342260
 H        -1.655616         0.457042         1.071447
 H         0.241986         1.144049        -1.255481
 H         1.489468         1.904415        -0.204733
 H         2.226880         0.308365         1.983301
 H         0.788228         1.570803         2.544859
