19
Iteration:  1453charge 0 multiplicity 1
 O         0.449738        -0.060145         4.448997
 C         0.362528        -0.438658         3.117831
 C         0.063007        -1.885323         2.667476
 C        -1.007728        -0.800067         2.558294
 C        -0.950306        -0.263599         1.120316
 C         0.346437         0.364051         0.959799
 C         0.922589         0.921422        -0.263242
 O         1.376024        -0.381154         0.103873
 C         0.964779         0.643117         2.293992
 H         0.182623        -0.887988         4.953102
 H         0.434237        -2.340216         1.690201
 H        -0.054737        -2.599783         3.523315
 H        -1.907829        -0.947045         3.069861
 H        -1.376633        -0.989386         0.320489
 H        -1.670034         0.623659         0.970987
 H         0.121872         1.064255        -0.989493
 H         1.692499         1.769153        -0.197718
 H         2.032712         0.772774         2.356964
 H         0.439092         1.529130         2.729185
