19
Iteration:  3623charge 0 multiplicity 1
 O         0.280392         0.033909         4.548270
 C         0.332882        -0.448534         3.186575
 C         0.250503        -1.939580         2.886213
 C        -0.937778        -0.968458         2.534932
 C        -0.969751        -0.292435         1.156943
 C         0.476539         0.240173         0.907404
 C         0.812384         1.082549        -0.269484
 O         1.301624        -0.251772        -0.205689
 C         1.042522         0.482199         2.311322
 H        -0.423978         0.731942         4.458539
 H         0.797825        -2.250394         2.051093
 H         0.232470        -2.723087         3.664270
 H        -1.944388        -1.027295         3.022565
 H        -1.240882        -0.956672         0.389419
 H        -1.773495         0.492690         1.252201
 H        -0.050197         1.038569        -0.960721
 H         1.405602         1.953357        -0.080204
 H         2.118400         0.229383         2.248561
 H         0.995255         1.547402         2.627674
