19
Iteration:  1141charge 0 multiplicity 1
 O         0.183861        -0.146613         4.629680
 C         0.344401        -0.374331         3.211782
 C         0.299407        -1.807373         2.664628
 C        -0.843796        -0.868072         2.391447
 C        -1.019382        -0.024504         1.167423
 C         0.456956         0.365773         0.990252
 C         0.906780         0.852524        -0.380351
 O         1.157970        -0.478223         0.009860
 C         1.018480         0.622103         2.320394
 H         0.754196        -0.742689         5.102297
 H         1.080446        -2.003095         1.859740
 H        -0.010092        -2.688967         3.242209
 H        -1.743839        -1.209180         2.995331
 H        -1.197528        -0.568322         0.197709
 H        -1.684987         0.864937         1.379592
 H         0.212006         1.049877        -1.255550
 H         1.880296         1.404123        -0.444827
 H         2.200170         0.556132         2.395306
 H         0.584992         1.561851         2.638587
