19
Iteration:  1927charge 0 multiplicity 1
 O         0.372557        -0.041149         4.650655
 C         0.269678        -0.433269         3.213110
 C         0.021790        -1.889161         2.783464
 C        -0.942728        -0.808098         2.491324
 C        -0.970799        -0.311355         1.085704
 C         0.445704         0.230249         0.887351
 C         0.816217         1.047198        -0.321489
 O         1.423002        -0.274814        -0.082693
 C         1.040573         0.532390         2.309527
 H         0.859574        -0.822421         5.038815
 H         0.692105        -2.127468         1.868665
 H        -0.108022        -2.628613         3.593861
 H        -1.873086        -0.874683         3.105410
 H        -1.319261        -1.112737         0.390651
 H        -1.818754         0.359270         0.644819
 H         0.138272         1.111296        -1.117746
 H         1.365794         2.006532        -0.249775
 H         2.050616         0.630362         2.285445
 H         0.634693         1.524864         2.692437
