19
Iteration:   947
 O         0.196645        -0.031755         4.587298
 C         0.354479        -0.435914         3.271171
 C         0.107568        -1.840795         2.920141
 C        -0.984106        -0.839631         2.615330
 C        -0.967983        -0.375947         1.101411
 C         0.438501         0.277427         0.833990
 C         0.964263         1.181444        -0.261807
 O         1.247156        -0.309296        -0.249807
 C         1.137745         0.411417         2.220756
 H         0.843952        -0.397490         5.193018
 H         0.673283        -2.177129         2.091535
 H        -0.161238        -2.553649         3.686935
 H        -1.925791        -0.922519         3.194510
 H        -1.160085        -1.164260         0.269150
 H        -1.716155         0.389986         0.904022
 H         0.237806         1.527662        -1.043600
 H         1.733917         1.991470         0.028901
 H         2.225313         0.171559         2.186921
 H         1.045182         1.479281         2.396667
