19
Iteration:  3886
 O         0.210529         0.075083         4.583365
 C         0.361481        -0.429044         3.183679
 C         0.266545        -1.892135         3.013047
 C        -0.896471        -0.905197         2.564179
 C        -0.957163        -0.492507         1.116526
 C         0.414798         0.200799         0.852117
 C         0.669704         1.148748        -0.213498
 O         1.316157        -0.090107        -0.288588
 C         1.089536         0.398906         2.206707
 H         0.795400        -0.340193         5.295052
 H         0.928365        -2.264190         2.275905
 H        -0.005549        -2.651921         3.751763
 H        -1.899552        -1.047788         3.077696
 H        -0.811844        -1.389073         0.598773
 H        -1.744273         0.155770         0.780748
 H        -0.089035         1.478908        -0.973716
 H         1.384148         2.004678        -0.067363
 H         2.073315        -0.017498         2.079140
 H         1.065438         1.392990         2.508726
