19
Iteration:  3565charge 0 multiplicity 1
 O         0.187610         0.139095         4.462668
 C         0.330584        -0.444811         3.253762
 C         0.084928        -1.886647         3.036514
 C        -0.932605        -0.948853         2.504036
 C        -0.904263        -0.488651         1.070615
 C         0.479022         0.334627         0.924080
 C         0.788780         1.165121        -0.220552
 O         1.175760        -0.181226        -0.215959
 C         1.291252         0.344050         2.263935
 H         0.739153        -0.453976         4.986622
 H         0.794182        -2.297095         2.236098
 H        -0.201630        -2.464230         3.905980
 H        -1.937592        -1.263056         2.782195
 H        -0.861855        -1.270747         0.282499
 H        -1.769274         0.105176         0.914402
 H        -0.067517         1.535499        -0.810178
 H         1.649163         1.996026        -0.205864
 H         2.318400        -0.018859         2.061648
 H         1.370418         1.343831         2.629929
