19
Iteration:  2449charge 0 multiplicity 1
 O         0.344222        -0.119346         4.566448
 C         0.342090        -0.351357         3.170312
 C         0.142968        -1.827603         2.823637
 C        -0.951589        -0.862402         2.476855
 C        -1.082091        -0.308586         1.075725
 C         0.324318         0.356171         0.881990
 C         0.979445         1.057554        -0.210237
 O         1.337773        -0.363297        -0.068316
 C         0.998271         0.538521         2.262687
 H         1.073912        -0.613490         5.032389
 H         0.729461        -2.234957         1.923661
 H        -0.174422        -2.503411         3.617807
 H        -1.822810        -0.781018         3.255124
 H        -1.251441        -1.142784         0.368217
 H        -2.011749         0.342958         0.997794
 H         0.455533         1.219197        -1.088842
 H         1.825271         1.659283         0.145499
 H         2.118504         0.362070         2.162214
 H         0.612720         1.611849         2.566110
