19
Iteration:   574charge 0 multiplicity 1
 O         0.462696        -0.170184         4.589012
 C         0.242306        -0.357909         3.240592
 C         0.114842        -1.792726         2.804671
 C        -1.011903        -0.855954         2.489887
 C        -0.992760        -0.295309         1.057556
 C         0.403832         0.287242         0.908903
 C         0.889018         0.989307        -0.253259
 O         1.300619        -0.350198        -0.104478
 C         1.020958         0.559239         2.345464
 H         0.831365         0.679388         4.837372
 H         0.702793        -2.149000         1.942190
 H        -0.273422        -2.492618         3.534338
 H        -2.026688        -0.852982         2.889889
 H        -1.027633        -1.221692         0.336938
 H        -1.733151         0.313824         0.527973
 H         0.325968         1.157159        -1.235612
 H         1.536392         1.824967        -0.020500
 H         2.123687         0.354344         2.426990
 H         0.842963         1.720541         2.611560
