19
Iteration:  2559charge 0 multiplicity 1
 O         0.235720        -0.066686         4.529793
 C         0.304916        -0.375230         3.167529
 C         0.372301        -1.857078         2.715097
 C        -0.882051        -0.977726         2.391880
 C        -1.013245        -0.128510         1.140934
 C         0.412513         0.403616         0.932975
 C         0.969887         0.943836        -0.230534
 O         1.106496        -0.477160         0.017239
 C         0.984513         0.595325         2.316752
 H         1.007987        -0.322425         5.012488
 H         1.114809        -2.090580         1.943727
 H         0.129985        -2.635525         3.518407
 H        -1.803606        -1.280821         2.854952
 H        -1.500502        -0.619721         0.264057
 H        -1.675262         0.816970         1.388418
 H         0.361579         1.180065        -1.067649
 H         1.903563         1.443886        -0.245307
 H         2.091867         0.766342         2.415167
 H         0.606095         1.609942         2.671629
