19
Iteration:  1083
 O         0.467774        -0.216149         4.684750
 C         0.302409        -0.441696         3.233624
 C         0.119807        -1.773852         2.679517
 C        -1.037656        -0.751323         2.476052
 C        -1.026190        -0.197630         1.033536
 C         0.372396         0.305658         0.854959
 C         0.945804         0.969014        -0.367438
 O         1.340821        -0.448372         0.092203
 C         0.879767         0.683838         2.325546
 H         1.482606        -0.238138         4.661008
 H         0.589399        -2.134832         1.717827
 H        -0.085516        -2.631190         3.464496
 H        -1.921359        -1.112004         2.911731
 H        -1.278551        -0.879809         0.267273
 H        -1.776823         0.626546         0.937171
 H         0.419766         1.085597        -1.336272
 H         1.940572         1.523714        -0.330674
 H         1.920990         0.621235         2.452763
 H         0.602690         1.661155         2.730321
