19
Iteration:  3607
 O         0.226804         0.116299         4.643438
 C         0.322731        -0.434152         3.269528
 C         0.235139        -1.883722         2.862834
 C        -0.917265        -0.986757         2.539249
 C        -1.009599        -0.360886         1.144831
 C         0.450038         0.212314         0.874112
 C         0.800540         1.125159        -0.200999
 O         1.295713        -0.237285        -0.318812
 C         1.164775         0.399721         2.209765
 H        -0.676432         0.231263         4.952216
 H         0.956179        -2.432208         2.126600
 H         0.004599        -2.563323         3.706332
 H        -1.711618        -1.250066         3.214317
 H        -1.380551        -1.101289         0.321731
 H        -1.663255         0.495244         1.103348
 H         0.178002         1.665005        -0.928636
 H         1.787055         1.852946        -0.125944
 H         2.238547         0.201969         2.306356
 H         0.863105         1.402381         2.455906
