19
Iteration:  2201
 O         0.182206        -0.179545         4.616136
 C         0.362124        -0.381023         3.187372
 C         0.378008        -1.750872         2.599506
 C        -0.861267        -0.884764         2.508761
 C        -1.097742        -0.164585         1.171343
 C         0.374092         0.391983         0.871445
 C         1.118112         0.971072        -0.247807
 O         1.043104        -0.527513         0.014494
 C         0.934553         0.646402         2.268238
 H         1.137629        -0.345379         4.892048
 H         1.037771        -1.926226         1.724865
 H         0.421705        -2.491206         3.443256
 H        -1.668838        -1.129508         3.165786
 H        -1.350454        -0.885563         0.385587
 H        -1.810342         0.651099         1.351862
 H         0.745091         1.203790        -1.248460
 H         2.181647         1.315298        -0.249165
 H         2.001501         0.602301         2.320440
 H         0.692888         1.795292         2.545663
