19
Iteration:   830charge 0 multiplicity 1
 O         0.208241         0.021253         4.594429
 C         0.324180        -0.421513         3.274830
 C         0.393025        -1.797572         2.617972
 C        -0.949845        -0.979880         2.385068
 C        -1.035730        -0.139051         1.118901
 C         0.422336         0.403617         0.918933
 C         0.946178         0.933176        -0.288853
 O         1.084678        -0.473910         0.000830
 C         1.104015         0.520451         2.358824
 H         0.615745        -0.489858         5.286953
 H         1.190858        -1.946486         1.981417
 H         0.223079        -2.693068         3.231210
 H        -1.884583        -1.147832         2.985571
 H        -1.327604        -0.620027         0.228315
 H        -1.844118         0.595540         1.317138
 H         0.326885         1.294541        -1.085696
 H         1.854560         1.488089        -0.265717
 H         2.178836         0.308002         2.238492
 H         1.026101         1.644706         2.656075
