19
Iteration:  3422charge 0 multiplicity 1
 O         0.189247         0.034955         4.636638
 C         0.226166        -0.399479         3.238248
 C         0.354662        -1.912846         2.810336
 C        -0.955090        -0.985007         2.417593
 C        -1.019817        -0.088576         1.153350
 C         0.465968         0.304278         0.901470
 C         0.807360         1.025781        -0.274838
 O         1.264893        -0.441655        -0.124002
 C         1.116893         0.514774         2.250381
 H         0.891929        -0.390537         5.110542
 H         1.193712        -2.110308         2.152808
 H        -0.075194        -2.743931         3.421493
 H        -1.816804        -1.315293         2.926791
 H        -1.420360        -0.449119         0.169704
 H        -1.578200         0.797692         1.435166
 H         0.087922         1.162160        -1.132218
 H         1.660142         1.794032        -0.247882
 H         2.143481         0.098641         2.134545
 H         1.192799         1.579332         2.593235
