19
Iteration:   385
 O         0.462010        -0.017288         4.567238
 C         0.233896        -0.374920         3.261807
 C         0.101879        -1.845389         2.848307
 C        -1.088961        -0.865915         2.463837
 C        -1.038130        -0.343114         1.052233
 C         0.471314         0.245562         0.933165
 C         0.773141         1.015130        -0.296797
 O         1.418804        -0.250366        -0.049314
 C         1.095689         0.504388         2.224988
 H         0.520849        -0.638510         5.328034
 H         0.708014        -2.277313         1.987648
 H        -0.021291        -2.457629         3.754903
 H        -2.115177        -1.004803         2.885979
 H        -1.249731        -1.012570         0.145672
 H        -1.789954         0.439165         0.866671
 H         0.139149         0.870656        -1.044026
 H         1.492040         1.811220        -0.207999
 H         2.225077         0.412773         2.281115
 H         0.927924         1.540437         2.589508
