19
Iteration:   352charge 0 multiplicity 1
 O         0.153416        -0.055323         4.628526
 C         0.343159        -0.406457         3.295292
 C         0.176157        -1.836796         2.911519
 C        -0.964880        -0.809916         2.573927
 C        -0.971386        -0.354765         1.084399
 C         0.495818         0.262666         0.832841
 C         0.907819         1.063367        -0.253942
 O         1.199155        -0.302140        -0.259037
 C         1.137959         0.520055         2.229274
 H         0.890998        -0.535655         5.107161
 H         0.734946        -2.251205         1.983081
 H         0.018830        -2.532181         3.739962
 H        -1.892053        -0.942189         3.148852
 H        -0.866115        -1.273899         0.397571
 H        -1.752053         0.397251         0.903756
 H         0.296055         1.385987        -1.003285
 H         1.821926         1.673282        -0.280591
 H         2.264451         0.436360         2.233995
 H         0.843398         1.530859         2.499508
