19
Iteration:   546charge 0 multiplicity 1
 O         0.355813        -0.205637         4.671123
 C         0.271869        -0.343706         3.243801
 C         0.223058        -1.776126         2.705526
 C        -0.992273        -0.853997         2.537886
 C        -1.034559        -0.235754         1.093731
 C         0.439006         0.265951         0.917211
 C         0.897261         0.999702        -0.357623
 O         1.333109        -0.421101        -0.058348
 C         0.974467         0.610038         2.287974
 H         0.978474         0.502228         4.980452
 H         0.571426        -1.930714         1.689161
 H         0.079859        -2.704814         3.353812
 H        -2.020925        -0.781889         2.937206
 H        -1.295423        -1.061454         0.488126
 H        -1.727312         0.602545         0.804382
 H         0.058961         0.943659        -1.012891
 H         1.728341         1.771467        -0.318914
 H         2.038754         0.492082         2.441124
 H         0.729993         1.613501         2.422874
