19
Iteration:   534charge 0 multiplicity 1
 O         0.274197        -0.218051         4.592817
 C         0.304139        -0.372413         3.205899
 C         0.201375        -1.811007         2.697111
 C        -0.958684        -0.822405         2.531907
 C        -0.989579        -0.193654         1.149919
 C         0.408952         0.306169         0.880360
 C         0.844009         0.880253        -0.334327
 O         1.312979        -0.395791        -0.037119
 C         1.022229         0.657250         2.320113
 H         0.955165         0.455318         4.782440
 H         0.913520        -2.206905         1.971240
 H         0.070527        -2.542129         3.558847
 H        -1.705540        -1.072346         3.300314
 H        -1.219430        -0.824462         0.282769
 H        -1.745394         0.659293         1.205677
 H         0.451078         1.080845        -1.322389
 H         1.596991         1.699489        -0.231468
 H         2.090236         0.628560         2.256835
 H         0.711215         1.625386         2.619271
