19
Iteration:  3382
 O         0.206982        -0.279379         4.543403
 C         0.397459        -0.398851         3.150402
 C         0.253426        -1.822749         2.724476
 C        -0.915501        -0.793823         2.531245
 C        -1.031567        -0.157955         1.119845
 C         0.376925         0.382454         0.890378
 C         0.921830         0.885177        -0.297492
 O         1.198293        -0.501671         0.018648
 C         1.072809         0.757129         2.309272
 H         1.050385         0.227629         4.759826
 H         0.710061        -2.093922         1.774476
 H         0.084067        -2.593388         3.580793
 H        -1.673312        -0.837586         3.261359
 H        -1.131103        -1.060158         0.526909
 H        -1.881250         0.564803         0.767584
 H         0.301166         1.314115        -0.994616
 H         1.752502         1.612825        -0.182893
 H         2.195309         0.830794         2.346353
 H         0.703007         1.723188         2.755226
