19
Iteration:  2320charge 0 multiplicity 1
 O         0.281017         0.023028         4.626168
 C         0.248107        -0.391747         3.253571
 C         0.155939        -1.832130         2.911576
 C        -1.032049        -0.869079         2.479923
 C        -0.941712        -0.409608         1.051524
 C         0.472562         0.217230         0.918224
 C         0.922473         1.124283        -0.163280
 O         1.199545        -0.241141        -0.334536
 C         1.150081         0.418810         2.325865
 H         1.149226        -0.047974         4.987478
 H         0.570256        -2.391849         1.991731
 H        -0.300422        -2.587038         3.597305
 H        -2.026794        -1.234940         2.920649
 H        -0.898675        -1.242922         0.306777
 H        -1.830379         0.160294         0.903662
 H         0.321788         1.715113        -0.932680
 H         1.864810         1.781886         0.045808
 H         2.245826         0.284275         2.252204
 H         1.011522         1.389444         2.652553
