19
Iteration:  1886charge 0 multiplicity 1
 O         0.141951        -0.205618         4.550543
 C         0.250040        -0.319213         3.203263
 C         0.330711        -1.825758         2.726441
 C        -0.862871        -0.914697         2.482749
 C        -1.025008        -0.143216         1.162064
 C         0.423030         0.448473         0.938498
 C         0.901358         0.934136        -0.350052
 O         1.190734        -0.471012        -0.042158
 C         1.121313         0.659187         2.348466
 H         0.982386        -0.382858         5.011132
 H         0.961461        -2.147271         1.777192
 H         0.286655        -2.633297         3.503173
 H        -1.850606        -1.164767         3.037693
 H        -1.297907        -0.665923         0.200572
 H        -1.808084         0.583120         1.325276
 H         0.145712         0.912274        -1.227829
 H         1.884318         1.460042        -0.240143
 H         2.270495         0.498224         2.490892
 H         0.935677         1.719852         2.576274
