19
Iteration:   713
 O         0.440556        -0.018408         4.498335
 C         0.309923        -0.459504         3.226990
 C         0.073310        -1.890394         2.862673
 C        -1.060673        -0.926748         2.480695
 C        -1.032333        -0.177190         1.115409
 C         0.406111         0.293786         0.909633
 C         0.919101         0.985097        -0.276796
 O         1.411560        -0.312607        -0.047686
 C         0.981656         0.526323         2.231680
 H         0.765808        -0.720448         5.138032
 H         0.555065        -2.419393         2.071042
 H        -0.165938        -2.431896         3.825796
 H        -2.086777        -0.927986         2.958482
 H        -1.349926        -0.757902         0.269997
 H        -1.745688         0.675449         1.167627
 H         0.403929         1.248334        -1.209218
 H         1.610797         1.767672        -0.172274
 H         2.104781         0.586447         2.352761
 H         0.625220         1.482655         2.505466
