19
Iteration:    94charge 0 multiplicity 1
 O         0.206748         0.014774         4.517182
 C         0.373788        -0.443331         3.188100
 C         0.230215        -1.905837         2.660210
 C        -0.946208        -0.906812         2.473275
 C        -0.958734        -0.112023         1.197654
 C         0.442684         0.376061         0.962207
 C         0.821376         0.921221        -0.371819
 O         1.240489        -0.457600         0.038223
 C         1.076049         0.554114         2.332571
 H         0.550063        -0.591498         5.225351
 H         0.894104        -2.124375         1.845474
 H         0.215069        -2.771686         3.362848
 H        -1.793802        -1.018557         3.109587
 H        -1.216091        -0.655327         0.240164
 H        -1.582685         0.915919         1.307862
 H         0.006891         1.167553        -1.182052
 H         1.788648         1.579504        -0.323446
 H         2.198331         0.565051         2.230980
 H         0.815734         1.637974         2.716074
