19
Iteration:  4959
 O         0.135609         0.021806         4.586427
 C         0.429532        -0.418475         3.254241
 C         0.627155        -1.859201         2.897411
 C        -0.771704        -1.131840         2.563321
 C        -0.918156        -0.571477         1.101548
 C         0.324943         0.253013         0.815667
 C         0.550848         1.155176        -0.287848
 O         1.279090        -0.131134        -0.140753
 C         0.875323         0.629433         2.252891
 H         0.932753         0.463731         4.987704
 H         1.216234        -1.998925         1.973995
 H         0.712528        -2.618156         3.635172
 H        -1.652227        -1.391603         3.094469
 H        -0.918311        -1.488870         0.353327
 H        -1.916743        -0.091111         0.949505
 H        -0.248658         1.204887        -1.107221
 H         1.198085         1.958496        -0.020854
 H         1.845884         0.963527         2.006508
 H         0.284551         1.494190         2.554653
