19
Iteration:  3489charge 0 multiplicity 1
 O         0.449042        -0.022989         4.564587
 C         0.285142        -0.438895         3.243738
 C         0.068451        -1.803893         2.997507
 C        -1.024966        -0.815405         2.471898
 C        -0.858549        -0.502482         1.029931
 C         0.456651         0.317356         0.933259
 C         0.779497         1.163565        -0.235793
 O         1.242895        -0.218542        -0.159553
 C         1.112865         0.367619         2.221713
 H        -0.459257         0.231214         4.883224
 H         0.815447        -2.242524         2.301857
 H        -0.345366        -2.562688         3.715078
 H        -1.944843        -0.818341         2.988311
 H        -0.673897        -1.451477         0.490467
 H        -1.666007        -0.019388         0.503770
 H         0.079631         1.243963        -1.060686
 H         1.640426         1.959497        -0.186571
 H         2.180784         0.045288         2.185086
 H         0.987616         1.453711         2.477013
