19
Iteration:  3860charge 0 multiplicity 1
 O         0.273630         0.002566         4.559702
 C         0.299918        -0.358174         3.157559
 C         0.151863        -1.927735         3.013193
 C        -0.894073        -1.005509         2.596665
 C        -0.963682        -0.522521         1.105790
 C         0.433368         0.182202         0.819816
 C         0.705964         1.193788        -0.220017
 O         1.319666        -0.112481        -0.246651
 C         1.118164         0.466834         2.246237
 H         1.048785         0.615708         4.782281
 H         0.846265        -2.147526         2.192290
 H         0.037228        -2.635419         3.799586
 H        -1.779075        -1.061168         3.151131
 H        -1.086358        -1.459588         0.427744
 H        -1.712956         0.321947         0.985117
 H         0.094393         1.348126        -1.097415
 H         1.286356         2.045939         0.065555
 H         2.200327         0.245873         2.293306
 H         0.858861         1.562222         2.478935
