19
Iteration:  2829charge 0 multiplicity 1
 O         0.387239         0.003913         4.533714
 C         0.266633        -0.399252         3.264331
 C         0.009210        -1.860791         2.949308
 C        -0.999584        -0.930977         2.448830
 C        -0.915341        -0.474912         1.005966
 C         0.515505         0.235912         0.877569
 C         0.718353         1.186255        -0.102105
 O         1.348438        -0.225090        -0.215813
 C         1.120536         0.442841         2.316225
 H         1.299549         0.392175         4.612664
 H         0.603334        -2.598613         2.304620
 H        -0.439287        -2.334447         3.834134
 H        -1.981280        -0.843645         2.683611
 H        -0.827116        -1.306367         0.229656
 H        -1.738824         0.192350         0.812415
 H        -0.189033         1.231104        -0.744307
 H         1.454588         2.086021        -0.152375
 H         2.195023         0.341092         2.199011
 H         0.779921         1.414499         2.734954
