19
Iteration:  2758
 O         0.232091         0.051636         4.580811
 C         0.334386        -0.439218         3.246189
 C         0.019911        -1.871149         3.101452
 C        -0.880505        -0.847199         2.437900
 C        -0.783389        -0.480755         1.041669
 C         0.603877         0.212698         0.801793
 C         0.687109         1.230591        -0.102916
 O         1.172695        -0.129452        -0.367962
 C         1.278547         0.209859         2.285287
 H        -0.703210         0.391343         4.682600
 H         0.483558        -2.429630         2.281747
 H        -0.299909        -2.401293         3.993626
 H        -1.884647        -0.733596         3.032971
 H        -0.890817        -1.285397         0.292764
 H        -1.539515         0.428106         0.856489
 H        -0.170281         1.563616        -0.659912
 H         1.419500         1.929394         0.103655
 H         2.287774        -0.283777         2.413819
 H         1.216988         1.315335         2.573482
