19
Iteration:   339charge 0 multiplicity 1
 O         0.105471        -0.046301         4.587682
 C         0.409491        -0.384790         3.210484
 C         0.163826        -1.861478         2.924062
 C        -0.925656        -0.915614         2.532679
 C        -0.898749        -0.318737         1.072621
 C         0.474953         0.277778         0.951058
 C         0.919904         1.136156        -0.323957
 O         1.116156        -0.374886        -0.250474
 C         1.167173         0.514905         2.313637
 H         0.865405         0.100337         5.173765
 H         0.796314        -2.342876         2.077549
 H        -0.082662        -2.527951         3.785873
 H        -1.797153        -0.901315         3.138175
 H        -1.207247        -1.046356         0.283411
 H        -1.700162         0.377418         0.816073
 H         0.142980         1.452660        -0.867923
 H         1.848852         1.717939        -0.104976
 H         2.283724         0.319305         2.208749
 H         1.068919         1.631012         2.645059
