19
Iteration:  2671
 O         0.352768         0.170048         4.515732
 C         0.270773        -0.459547         3.241123
 C         0.009201        -1.965419         3.004324
 C        -0.992879        -0.926679         2.489937
 C        -0.889304        -0.450999         1.086324
 C         0.538162         0.202892         0.903487
 C         0.822461         1.211658        -0.213012
 O         1.301345        -0.120404        -0.227087
 C         1.108541         0.316859         2.199744
 H         0.486175        -0.505466         5.206243
 H         0.707894        -2.452292         2.300902
 H        -0.234809        -2.646153         3.766091
 H        -2.066860        -0.868179         2.845784
 H        -1.226983        -1.242750         0.374208
 H        -1.624707         0.477153         0.923098
 H        -0.058521         1.441214        -0.817090
 H         1.455274         2.041842        -0.021249
 H         2.157797        -0.098181         2.303985
 H         1.049336         1.349217         2.671131
