19
Iteration:  3849
 O         0.331582         0.006165         4.521947
 C         0.315848        -0.415579         3.243793
 C         0.220910        -1.937088         2.959981
 C        -0.966091        -0.980168         2.473545
 C        -0.926460        -0.472038         1.127130
 C         0.455758         0.217519         0.926928
 C         0.672560         1.154685        -0.238563
 O         1.292844        -0.147954        -0.191373
 C         1.067407         0.504106         2.244065
 H         0.803543         0.854534         4.628239
 H         0.929648        -2.508107         2.327519
 H        -0.117756        -2.437819         3.834828
 H        -1.897948        -1.064036         2.951293
 H        -0.940484        -1.247139         0.268686
 H        -1.865998         0.088251         0.849856
 H        -0.101031         1.371308        -0.958524
 H         1.464637         1.859382        -0.107949
 H         2.159939         0.338551         2.188007
 H         1.003249         1.580076         2.608279
