19
Iteration:  4835charge 0 multiplicity 1
 O         0.422355        -0.061282         4.696900
 C         0.357206        -0.410289         3.233032
 C         0.532813        -1.788845         2.784310
 C        -0.840093        -1.194480         2.481172
 C        -1.028202        -0.542535         1.104748
 C         0.257908         0.381741         0.824722
 C         0.707257         1.031553        -0.366028
 O         1.317281        -0.189449         0.001918
 C         0.775302         0.709260         2.261442
 H        -0.198884         0.727729         4.722069
 H         1.087598        -1.909679         1.819241
 H         0.718765        -2.574977         3.477742
 H        -1.638519        -1.340170         3.246298
 H        -1.005303        -1.307547         0.222309
 H        -1.951842         0.014601         0.872711
 H        -0.048474         1.080199        -1.117405
 H         1.443195         1.912817        -0.379324
 H         1.840067         0.957595         2.265886
 H         0.288800         1.633719         2.542511
