19
Iteration:  2566
 O         0.257109         0.004311         4.510789
 C         0.275352        -0.462960         3.234574
 C         0.338797        -1.906611         2.705614
 C        -0.871756        -0.945290         2.391459
 C        -0.985925        -0.130579         1.140568
 C         0.400073         0.329931         0.992105
 C         0.943729         1.000162        -0.250427
 O         1.142739        -0.464395         0.018826
 C         0.969442         0.641256         2.257535
 H         1.061676        -0.331919         4.909030
 H         1.139868        -2.117271         1.958110
 H         0.114141        -2.643111         3.453011
 H        -1.957175        -1.378427         2.691428
 H        -1.458694        -0.599874         0.259610
 H        -1.519273         0.777522         1.421977
 H         0.178391         1.252991        -0.995417
 H         2.048613         1.384167        -0.224347
 H         2.043669         0.621013         2.354707
 H         0.613316         1.506790         2.765821
