19
Iteration:  2289charge 0 multiplicity 1
 O         0.264303        -0.118100         4.590106
 C         0.332721        -0.430444         3.192327
 C         0.071857        -1.862888         2.930972
 C        -0.998868        -0.763474         2.543481
 C        -0.912389        -0.351598         1.079430
 C         0.458560         0.250978         0.864014
 C         0.776748         1.102025        -0.332640
 O         1.347418        -0.207351        -0.079318
 C         1.135941         0.469453         2.232578
 H         1.084449        -0.452005         5.056593
 H         0.591416        -2.396782         2.103457
 H        -0.240723        -2.555649         3.695305
 H        -2.002193        -0.879999         3.076075
 H        -1.062643        -1.202238         0.380027
 H        -1.673764         0.441329         1.005367
 H         0.159765         1.091212        -1.281300
 H         1.521949         1.897366        -0.149468
 H         2.163034         0.310178         2.033475
 H         0.804619         1.414278         2.511665
