19
Iteration:  1750charge 0 multiplicity 1
 O         0.424181         0.012259         4.547404
 C         0.282501        -0.454146         3.200576
 C         0.038762        -1.859016         2.919823
 C        -0.984473        -0.937776         2.386979
 C        -0.930609        -0.290748         1.031743
 C         0.385161         0.350410         0.935275
 C         0.816477         1.052857        -0.271293
 O         1.407330        -0.252276        -0.073802
 C         1.046758         0.443786         2.297960
 H         0.569011        -0.793152         5.103744
 H         0.484781        -2.517094         2.171841
 H        -0.361081        -2.450480         3.715858
 H        -1.953900        -0.828554         2.980616
 H        -1.130677        -1.042978         0.236206
 H        -1.613241         0.492319         1.006269
 H         0.008941         1.088257        -1.020052
 H         1.437357         1.882613        -0.126375
 H         2.096123         0.340479         2.233014
 H         0.822063         1.435238         2.828754
