19
Iteration:  1056charge 0 multiplicity 1
 O         0.358995        -0.249734         4.617375
 C         0.261825        -0.397238         3.191444
 C         0.142010        -1.774243         2.766543
 C        -1.071773        -0.752537         2.498801
 C        -0.956421        -0.241066         1.134468
 C         0.488270         0.296803         0.902344
 C         0.917096         0.942170        -0.251602
 O         1.282862        -0.442310        -0.133552
 C         0.986226         0.715508         2.324030
 H         1.351012        -0.074666         4.655755
 H         0.646135        -2.205751         1.934920
 H         0.088042        -2.323181         3.621897
 H        -2.069295        -1.152418         2.851530
 H        -1.066036        -0.925153         0.214847
 H        -1.687233         0.558948         1.056409
 H         0.262736         1.281743        -1.050595
 H         1.804480         1.547590        -0.245292
 H         2.100689         0.560991         2.616183
 H         0.596871         1.746015         2.537877
