19
Iteration:  4496
 O         0.544906        -0.045470         4.595837
 C         0.350963        -0.364861         3.256785
 C         0.318206        -1.794895         2.731870
 C        -0.957539        -1.053204         2.448367
 C        -0.978928        -0.439851         1.053012
 C         0.344239         0.344584         0.924406
 C         0.755837         0.948111        -0.324884
 O         1.303477        -0.279570         0.028527
 C         0.859103         0.679020         2.310038
 H        -0.280307        -0.176888         5.111711
 H         0.883480        -1.906557         1.769766
 H         0.230062        -2.538579         3.494999
 H        -1.922505        -1.336850         2.929958
 H        -1.294782        -1.131470         0.204130
 H        -1.716278         0.336172         1.186738
 H         0.009317         1.143748        -1.228109
 H         1.443017         1.797578        -0.263534
 H         1.914271         0.949323         2.142890
 H         0.380768         1.658475         2.597361
