19
Iteration:   159
 O         0.157021        -0.078011         4.561965
 C         0.321025        -0.457768         3.205359
 C         0.232440        -1.839189         2.781878
 C        -0.886789        -0.903081         2.523582
 C        -0.991548        -0.156336         1.190595
 C         0.382043         0.391889         0.911864
 C         0.990612         0.981659        -0.371455
 O         1.168771        -0.431230        -0.132701
 C         1.098040         0.546558         2.334954
 H         1.031981         0.154417         4.922052
 H         0.929270        -2.301438         2.099920
 H        -0.027976        -2.496633         3.583784
 H        -1.806787        -1.055350         3.030126
 H        -1.179728        -0.886528         0.430478
 H        -1.836495         0.587488         1.279107
 H         0.335836         1.244134        -1.258536
 H         2.004197         1.418549        -0.197083
 H         2.223520         0.492637         2.332194
 H         0.859302         1.644206         2.709428
