19
Iteration:  3487
 O         0.446039        -0.014161         4.564379
 C         0.281705        -0.440237         3.246879
 C         0.069473        -1.805518         2.976765
 C        -1.007129        -0.821355         2.476328
 C        -0.869511        -0.500287         1.032514
 C         0.448463         0.318101         0.944115
 C         0.789315         1.153666        -0.256399
 O         1.234559        -0.216730        -0.158677
 C         1.120255         0.374313         2.236750
 H        -0.485708         0.180605         4.859374
 H         0.802730        -2.260594         2.340310
 H        -0.368517        -2.567673         3.676087
 H        -1.898030        -0.769636         3.024350
 H        -0.626012        -1.444765         0.468070
 H        -1.661580        -0.063205         0.522620
 H         0.046990         1.321575        -1.093383
 H         1.676817         1.905400        -0.148381
 H         2.163096         0.070331         2.194535
 H         0.984089         1.407745         2.506538
