19
Iteration:  2833charge 0 multiplicity 1
 O         0.355074        -0.007833         4.533759
 C         0.267616        -0.414759         3.269687
 C         0.021010        -1.853286         2.923664
 C        -0.969192        -0.934295         2.452336
 C        -0.902638        -0.475281         1.035804
 C         0.519571         0.244382         0.883893
 C         0.721686         1.181496        -0.104558
 O         1.326284        -0.233087        -0.234126
 C         1.117262         0.461627         2.320647
 H         1.248652         0.271945         4.688238
 H         0.592416        -2.575465         2.343510
 H        -0.264379        -2.312499         3.914985
 H        -2.087202        -0.709954         2.763409
 H        -0.899611        -1.211025         0.274894
 H        -1.671583         0.248766         0.769886
 H        -0.131296         1.209643        -0.894349
 H         1.536536         1.953917        -0.122277
 H         2.214130         0.437857         2.232066
 H         0.766410         1.445617         2.579615
