19
Iteration:   284charge 0 multiplicity 1
 O         0.162004         0.088833         4.537306
 C         0.249597        -0.399193         3.218140
 C         0.257173        -1.916763         2.796314
 C        -0.950516        -0.964596         2.517012
 C        -1.000208        -0.189214         1.212849
 C         0.426517         0.252310         0.929289
 C         0.826560         0.993621        -0.268286
 O         1.338168        -0.283735        -0.099521
 C         1.135354         0.387499         2.234389
 H         1.070742         0.254109         4.792332
 H         0.838989        -2.162267         1.889632
 H        -0.147895        -2.673699         3.539823
 H        -1.845691        -1.362023         2.943418
 H        -1.495177        -0.761009         0.305989
 H        -1.495485         0.807744         1.406214
 H         0.276015         1.230368        -1.107816
 H         1.628764         1.775439        -0.238640
 H         2.143218        -0.025481         2.005696
 H         1.190878         1.495895         2.509689
