19
Iteration:   855
 O         0.190851        -0.124530         4.585099
 C         0.351705        -0.342824         3.182418
 C         0.258977        -1.831517         2.757801
 C        -0.921159        -0.808527         2.543361
 C        -1.010136        -0.239505         1.129412
 C         0.422643         0.335469         0.888315
 C         0.943743         0.980786        -0.256014
 O         1.201539        -0.398616        -0.083902
 C         1.079905         0.546537         2.214869
 H         0.732478        -0.763123         5.103619
 H         0.889430        -2.435669         1.990029
 H         0.067205        -2.377147         3.670366
 H        -1.829750        -0.938187         3.211556
 H        -1.307011        -0.916191         0.317280
 H        -1.886868         0.512305         1.199469
 H         0.223377         1.233550        -1.052885
 H         1.724952         1.712998        -0.110244
 H         2.259695         0.467069         2.296763
 H         0.842516         1.612771         2.553268
