19
Iteration:  4817charge 0 multiplicity 1
 O         0.447432        -0.034622         4.550080
 C         0.226673        -0.340289         3.248365
 C         0.551343        -1.823555         2.679638
 C        -0.791224        -1.103423         2.541513
 C        -0.919677        -0.521756         1.116267
 C         0.315397         0.337390         0.921574
 C         0.658261         0.988807        -0.395184
 O         1.262091        -0.229900         0.031899
 C         0.763526         0.776740         2.349944
 H        -0.429778        -0.224960         4.963413
 H         1.282282        -2.019382         1.935663
 H         0.541287        -2.553935         3.512005
 H        -1.695247        -1.614173         2.842048
 H        -1.024121        -1.217691         0.217735
 H        -1.810854         0.126127         1.106828
 H         0.166309         0.860235        -1.386450
 H         1.290314         1.893450        -0.390498
 H         1.858970         0.917274         2.246661
 H         0.332483         1.726874         2.826266
