19
Iteration:  3672charge 0 multiplicity 1
 O         0.342500        -0.254282         4.668082
 C         0.282739        -0.326142         3.218330
 C         0.277402        -1.757711         2.746147
 C        -0.943086        -0.873959         2.534387
 C        -0.955804        -0.329009         1.065130
 C         0.324078         0.435847         0.909979
 C         0.817425         0.881851        -0.409084
 O         1.334830        -0.386028        -0.031937
 C         0.913636         0.709501         2.341210
 H         1.184805         0.214907         4.814222
 H         1.025409        -2.033682         1.896321
 H         0.097670        -2.610612         3.408818
 H        -1.855642        -1.070185         3.103184
 H        -1.092390        -1.121351         0.209522
 H        -1.768279         0.447418         1.048491
 H         0.220613         0.928514        -1.295351
 H         1.725372         1.568116        -0.362133
 H         2.005756         0.755724         2.138889
 H         0.526867         1.698186         2.719428
