19
Iteration:   976charge 0 multiplicity 1
 O         0.145993         0.081629         4.582891
 C         0.302654        -0.470780         3.299119
 C         0.219009        -1.870414         2.895489
 C        -0.907072        -0.960061         2.465533
 C        -0.898571        -0.192986         1.116008
 C         0.546712         0.256588         0.892771
 C         0.888133         1.149682        -0.223871
 O         1.118804        -0.371993        -0.328184
 C         1.136785         0.416483         2.307669
 H         0.420972        -0.601763         5.264290
 H         0.983400        -2.417857         2.287070
 H        -0.217741        -2.597249         3.694433
 H        -1.805104        -1.186982         2.923066
 H        -1.154030        -0.653548         0.181754
 H        -1.524049         0.761912         1.165080
 H         0.028217         1.386553        -0.753081
 H         1.721329         1.798944        -0.066197
 H         2.266650         0.122499         2.463517
 H         1.091661         1.517533         2.445832
