19
Iteration:  3421
 O         0.188301         0.031892         4.642005
 C         0.224259        -0.400509         3.237210
 C         0.346140        -1.909633         2.806635
 C        -0.953423        -0.989365         2.417614
 C        -1.009437        -0.084995         1.156288
 C         0.460306         0.310168         0.895386
 C         0.815333         1.023409        -0.284463
 O         1.259937        -0.439818        -0.114515
 C         1.122317         0.517668         2.249275
 H         0.914329        -0.358406         5.119714
 H         1.180614        -2.102970         2.137920
 H        -0.046175        -2.740224         3.384777
 H        -1.827236        -1.336227         2.959886
 H        -1.396481        -0.472106         0.177936
 H        -1.582385         0.762169         1.420262
 H         0.045115         1.170135        -1.126966
 H         1.670614         1.758406        -0.238210
 H         2.127712         0.108722         2.128280
 H         1.175532         1.559461         2.586378
