19
Iteration:   974charge 0 multiplicity 1
 O         0.147582         0.075175         4.604902
 C         0.312671        -0.467461         3.271004
 C         0.210990        -1.883897         2.901228
 C        -0.892779        -0.944372         2.469314
 C        -0.903578        -0.195443         1.106161
 C         0.537594         0.244518         0.898672
 C         0.901515         1.140382        -0.220946
 O         1.124763        -0.363292        -0.344173
 C         1.131923         0.423091         2.314757
 H         0.407762        -0.534031         5.298956
 H         1.000523        -2.396863         2.278946
 H        -0.242836        -2.570007         3.673854
 H        -1.823016        -1.163510         2.972228
 H        -1.157833        -0.679566         0.213734
 H        -1.611567         0.710918         1.189397
 H         0.020451         1.411286        -0.810304
 H         1.712346         1.820583        -0.054575
 H         2.162837         0.119905         2.468578
 H         1.095482         1.515013         2.428623
