19
Iteration:   800
 O         0.191169        -0.061326         4.521149
 C         0.285590        -0.453415         3.240580
 C         0.388579        -1.861063         2.659845
 C        -0.879210        -0.970138         2.409068
 C        -0.982002        -0.024465         1.220939
 C         0.443497         0.376930         0.907801
 C         0.903165         0.884480        -0.356771
 O         1.173529        -0.498912         0.047544
 C         0.979403         0.653691         2.301293
 H         0.871783        -0.480952         5.130543
 H         1.252687        -2.031242         1.962382
 H         0.036051        -2.690185         3.295113
 H        -1.907110        -1.086214         2.915364
 H        -1.582421        -0.306115         0.359273
 H        -1.517815         0.903251         1.713775
 H         0.222773         1.076456        -1.215058
 H         1.755414         1.525108        -0.284503
 H         2.153481         0.525005         2.421026
 H         0.711714         1.671918         2.732342
