19
Iteration:  2763charge 0 multiplicity 1
 O         0.225011         0.023051         4.590039
 C         0.349132        -0.443886         3.190670
 C         0.012689        -1.854141         3.102714
 C        -0.924887        -0.834165         2.470175
 C        -0.785637        -0.479332         1.045470
 C         0.529505         0.178884         0.818848
 C         0.710576         1.250152        -0.134831
 O         1.217327        -0.120911        -0.350759
 C         1.300789         0.226187         2.280381
 H        -0.600045         0.497125         4.764526
 H         0.468954        -2.483852         2.334873
 H        -0.170854        -2.379153         4.044467
 H        -1.828007        -0.686328         2.964964
 H        -0.951838        -1.298419         0.313580
 H        -1.565540         0.231309         0.904024
 H        -0.186662         1.450297        -0.750981
 H         1.405351         2.111982         0.210819
 H         2.270461        -0.243465         2.289237
 H         1.289065         1.268716         2.528346
