19
Iteration:  1406
 O         0.377185        -0.137660         4.594905
 C         0.223307        -0.364575         3.260998
 C         0.087144        -1.775002         2.890627
 C        -1.040996        -0.882803         2.455113
 C        -0.910430        -0.268794         1.099301
 C         0.469650         0.312388         0.920620
 C         0.862872         1.013580        -0.342103
 O         1.362514        -0.304348        -0.131688
 C         1.015398         0.553646         2.276149
 H         0.537465        -0.974555         5.013841
 H         0.693689        -2.186347         2.119379
 H        -0.119858        -2.479441         3.681807
 H        -1.965424        -0.867847         3.130375
 H        -1.148996        -0.948496         0.177578
 H        -1.747014         0.411004         1.076424
 H         0.109266         1.078442        -1.200696
 H         1.663954         1.885005        -0.289772
 H         2.070467         0.046067         2.184703
 H         1.099179         1.475986         2.690408
