19
Iteration:   476
 O         0.251466        -0.008364         4.611197
 C         0.271089        -0.392966         3.269948
 C         0.398017        -1.691622         2.626118
 C        -0.862368        -0.968859         2.418745
 C        -1.020274        -0.134080         1.142592
 C         0.414388         0.320324         0.948584
 C         0.924412         0.953562        -0.317653
 O         1.137850        -0.520492        -0.027812
 C         1.008715         0.568495         2.350415
 H         0.338413        -0.799764         5.195378
 H         1.008617        -1.849534         1.749789
 H         0.133310        -2.511423         3.230334
 H        -1.630353        -1.304667         3.076240
 H        -1.398117        -0.571831         0.154241
 H        -1.775989         0.676977         1.369654
 H         0.163386         1.058445        -1.084398
 H         1.855577         1.337417        -0.327350
 H         2.058319         0.357804         2.264662
 H         0.912741         1.633579         2.501247
