19
Iteration:  3170charge 0 multiplicity 1
 O         0.415282        -0.001378         4.671944
 C         0.205599        -0.382323         3.235627
 C         0.090264        -1.805866         2.939215
 C        -1.023416        -0.882820         2.495429
 C        -0.833876        -0.450131         0.975267
 C         0.559320         0.156691         0.897329
 C         0.786108         1.126650        -0.177471
 O         1.234435        -0.193234        -0.279149
 C         1.079517         0.464443         2.286783
 H         0.196078        -0.921746         5.007143
 H         0.715737        -2.273312         2.275769
 H        -0.159031        -2.246822         3.887198
 H        -2.026163        -0.971224         2.944887
 H        -1.023474        -1.232855         0.127453
 H        -1.592864         0.418522         0.777054
 H        -0.036950         1.366469        -0.849610
 H         1.413364         1.955521        -0.165701
 H         2.125735         0.133872         2.149696
 H         1.142888         1.595593         2.457964
