19
Iteration:  3233charge 0 multiplicity 1
 O         0.209764        -0.002747         4.532154
 C         0.254585        -0.420855         3.199591
 C         0.271229        -1.904129         2.783380
 C        -0.931233        -0.968200         2.418479
 C        -0.965911        -0.219692         1.132239
 C         0.470999         0.317409         0.996585
 C         0.786622         1.057132        -0.229742
 O         1.213270        -0.344963        -0.139315
 C         1.160605         0.461946         2.332544
 H         0.838290         0.733049         4.736800
 H         1.011505        -2.368793         2.125250
 H        -0.047970        -2.601324         3.585120
 H        -1.714447        -1.090640         3.128995
 H        -1.355020        -0.799914         0.279291
 H        -1.654954         0.603357         1.105033
 H         0.122504         1.044693        -1.111501
 H         1.551061         1.823446        -0.068532
 H         2.220785         0.253502         2.262668
 H         1.196632         1.501342         2.795659
