19
Iteration:  4585
 O         0.185648         0.091681         4.475922
 C         0.330848        -0.445737         3.201243
 C         0.530055        -1.860625         2.956732
 C        -0.869830        -1.065010         2.458523
 C        -0.978355        -0.414652         1.075968
 C         0.424083         0.284474         0.943649
 C         0.623940         1.118130        -0.232752
 O         1.213777        -0.257915        -0.165848
 C         1.035243         0.498892         2.322655
 H         0.953907        -0.373150         4.953685
 H         1.112556        -2.245557         2.136301
 H         0.639804        -2.482200         3.886614
 H        -1.712445        -1.163513         3.121901
 H        -1.169137        -0.955337         0.042278
 H        -1.675304         0.385772         1.034908
 H        -0.232721         1.433134        -0.982790
 H         1.262693         2.090667        -0.017938
 H         2.108418         0.460273         2.156625
 H         0.670431         1.548191         2.713462
