19
Iteration:  2576
 O         0.290268         0.105698         4.549047
 C         0.262733        -0.558783         3.225785
 C         0.259885        -1.928221         2.695013
 C        -0.897337        -0.975573         2.411296
 C        -0.976405        -0.106212         1.157863
 C         0.450087         0.274180         0.909658
 C         0.897996         0.999071        -0.263555
 O         1.217591        -0.410344         0.003358
 C         0.960920         0.603698         2.332042
 H         1.089222        -0.220122         4.934256
 H         1.021148        -2.255808         1.967802
 H        -0.008011        -2.756885         3.268949
 H        -1.863369        -1.378856         2.974792
 H        -1.292428        -0.623003         0.251353
 H        -1.624932         0.665055         1.359987
 H         0.181239         1.311741        -1.073575
 H         1.731650         1.844728        -0.197266
 H         2.000224         0.405959         2.187721
 H         0.647896         1.606441         2.597773
