19
Iteration:  3079charge 0 multiplicity 1
 O         0.278632         0.151286         4.610459
 C         0.241411        -0.455421         3.309204
 C         0.170840        -1.949505         2.846967
 C        -0.877340        -0.961628         2.474823
 C        -0.892617        -0.319710         1.094823
 C         0.490459         0.267670         0.878105
 C         0.874484         1.159879        -0.211892
 O         1.163320        -0.318239        -0.281844
 C         1.095183         0.429021         2.316122
 H        -0.092200        -0.488679         5.211221
 H         1.018442        -2.053557         2.048694
 H        -0.078883        -2.819122         3.544990
 H        -1.862681        -1.315109         2.900344
 H        -1.121284        -0.832003         0.067495
 H        -1.627758         0.558857         1.288125
 H         0.215365         1.421419        -1.030388
 H         1.548226         2.060177        -0.233067
 H         2.140708         0.051481         2.382689
 H         1.066510         1.472841         2.783533
