19
Iteration:  3454charge 0 multiplicity 1
 O         0.233911         0.086217         4.541381
 C         0.322190        -0.454230         3.228990
 C         0.174548        -1.934124         2.900752
 C        -0.952940        -0.959806         2.566845
 C        -0.944165        -0.278009         1.187008
 C         0.502239         0.259642         0.902301
 C         0.846390         1.127159        -0.264362
 O         1.239440        -0.315102        -0.207172
 C         1.132480         0.471706         2.186508
 H        -0.224157        -0.624588         5.057488
 H         0.822095        -2.284009         2.114454
 H        -0.077329        -2.719338         3.645155
 H        -1.828662        -0.891802         3.154520
 H        -1.174765        -0.885698         0.283107
 H        -1.596737         0.541519         1.210502
 H         0.125958         1.451186        -1.076261
 H         1.739054         1.824936        -0.158146
 H         2.219486         0.380213         2.163310
 H         0.961425         1.507776         2.482006
