19
Iteration:  3786charge 0 multiplicity 1
 O         0.288821        -0.135846         4.601449
 C         0.310298        -0.388223         3.251630
 C         0.419202        -1.779290         2.780355
 C        -0.884607        -0.926122         2.556449
 C        -1.017186        -0.266439         1.145296
 C         0.385813         0.203911         0.871910
 C         0.748369         0.990640        -0.319605
 O         1.309800        -0.341817        -0.126922
 C         1.010044         0.639394         2.280749
 H        -0.597658        -0.400266         4.859728
 H         0.865936        -1.817297         1.789345
 H         0.575356        -2.508293         3.485485
 H        -1.716279        -0.668456         3.169622
 H        -1.519659        -0.917297         0.479884
 H        -1.691484         0.564084         1.284379
 H         0.054266         1.105452        -1.268110
 H         1.516128         1.706136        -0.068743
 H         2.080014         0.663995         2.268573
 H         0.707881         1.642935         2.331909
