19
Iteration:  2454
 O         0.369539        -0.104959         4.575569
 C         0.329435        -0.382050         3.191011
 C         0.146457        -1.847267         2.798043
 C        -0.938445        -0.857173         2.508798
 C        -1.126835        -0.320180         1.033553
 C         0.344125         0.371469         0.861881
 C         1.010812         1.032460        -0.248459
 O         1.325491        -0.359591        -0.022245
 C         0.990993         0.579763         2.276393
 H         1.062060        -0.574019         5.044408
 H         0.664739        -2.331188         1.997055
 H        -0.196709        -2.574356         3.561675
 H        -1.776284        -0.865128         3.111109
 H        -1.288882        -1.002831         0.188245
 H        -1.868175         0.452944         1.079793
 H         0.336923         1.134766        -1.213777
 H         1.687691         1.843263         0.129876
 H         2.032733         0.407256         2.137929
 H         0.656681         1.442995         2.779539
