19
Iteration:  1523charge 0 multiplicity 1
 O         0.203269        -0.015732         4.497095
 C         0.299496        -0.446732         3.177441
 C         0.359550        -1.819195         2.606493
 C        -0.875930        -0.938448         2.419681
 C        -0.960767        -0.068066         1.210215
 C         0.511169         0.325618         1.029845
 C         0.920199         0.878727        -0.342295
 O         1.123851        -0.483125         0.003555
 C         1.016891         0.624779         2.382178
 H         0.028336        -0.809636         5.088313
 H         0.940925        -1.813916         1.709124
 H         0.374970        -2.665457         3.303223
 H        -1.826541        -1.382860         2.877570
 H        -1.559497        -0.252105         0.356956
 H        -1.452030         0.888480         1.689956
 H         0.101397         1.066748        -1.018609
 H         1.751684         1.464298        -0.373337
 H         2.111616         0.624305         2.469673
 H         0.554203         1.600762         2.806278
