19
Iteration:  3757charge 0 multiplicity 1
 O         0.370241        -0.051394         4.578530
 C         0.314817        -0.392008         3.242524
 C         0.397686        -1.808922         2.642727
 C        -0.795419        -1.017759         2.418778
 C        -1.000280        -0.168229         1.128693
 C         0.347930         0.425775         0.952682
 C         0.811454         0.899891        -0.342575
 O         1.184656        -0.456548         0.024101
 C         0.922169         0.667034         2.367310
 H        -0.333846        -0.540367         5.012237
 H         1.063486        -1.905422         1.733289
 H         0.342548        -2.479052         3.512288
 H        -1.724477        -1.364516         2.928636
 H        -1.176221        -0.869038         0.304047
 H        -1.963015         0.368090         1.217830
 H         0.143773         1.058644        -1.199314
 H         1.705662         1.507139        -0.324714
 H         2.032459         0.773282         2.405617
 H         0.563289         1.731001         2.575311
