19
Iteration:  4942charge 0 multiplicity 1
 O         0.178538        -0.077180         4.534664
 C         0.314395        -0.349521         3.161467
 C         0.586148        -1.826758         2.883249
 C        -0.699449        -1.153990         2.517533
 C        -0.906365        -0.649025         1.137567
 C         0.344495         0.281394         0.945466
 C         0.528891         1.127879        -0.258187
 O         1.251435        -0.143318        -0.163196
 C         0.922970         0.711252         2.252922
 H         0.210767         0.919097         4.558066
 H         1.320093        -2.231382         2.168769
 H         0.611085        -2.401596         3.856595
 H        -1.539983        -1.299450         3.272527
 H        -1.056246        -1.270680         0.339792
 H        -1.709605         0.090812         1.235701
 H        -0.155239         1.030143        -1.033500
 H         1.148086         2.072079        -0.233598
 H         2.032873         0.559302         2.471419
 H         0.669852         1.784354         2.459547
