19
Iteration:  3396
 O         0.178448        -0.133127         4.550775
 C         0.363499        -0.414264         3.193260
 C         0.304134        -1.858465         2.672334
 C        -0.909453        -0.779363         2.532185
 C        -1.005794        -0.247744         1.135775
 C         0.436427         0.410021         0.967288
 C         0.939512         0.963088        -0.386751
 O         1.122651        -0.428360        -0.032821
 C         1.070439         0.593436         2.410580
 H         0.924942         0.211933         5.024282
 H         0.911995        -2.187842         1.824395
 H         0.114396        -2.607616         3.404805
 H        -1.866499        -0.939914         3.170855
 H        -1.134843        -0.904089         0.287959
 H        -1.827407         0.464508         1.128595
 H         0.324079         0.906823        -1.335081
 H         1.866287         1.493365        -0.463837
 H         2.114411         0.402929         2.319636
 H         0.866858         1.563597         2.782946
