19
Iteration:  2760charge 0 multiplicity 1
 O         0.227048         0.040258         4.586251
 C         0.343121        -0.442435         3.219909
 C         0.017737        -1.862461         3.102522
 C        -0.893686        -0.841235         2.441995
 C        -0.780027        -0.483990         1.048437
 C         0.575344         0.205683         0.795762
 C         0.696820         1.237898        -0.113705
 O         1.188316        -0.126323        -0.357646
 C         1.287848         0.213620         2.285916
 H        -0.641474         0.424378         4.722323
 H         0.439857        -2.418214         2.325392
 H        -0.237688        -2.396396         4.022915
 H        -1.892442        -0.714871         3.035186
 H        -0.913538        -1.308784         0.285567
 H        -1.575792         0.393545         0.881101
 H        -0.150759         1.501844        -0.671631
 H         1.370253         1.969359         0.155113
 H         2.284504        -0.290042         2.375019
 H         1.220865         1.318196         2.554018
