19
Iteration:  3894charge 0 multiplicity 1
 O         0.221946         0.096588         4.540940
 C         0.312847        -0.407667         3.269302
 C         0.220056        -1.894783         3.003641
 C        -0.854456        -0.945439         2.540252
 C        -0.902731        -0.482164         1.064133
 C         0.405238         0.247427         0.884228
 C         0.661010         1.185684        -0.217817
 O         1.259219        -0.133097        -0.270275
 C         1.178617         0.393601         2.217786
 H         0.643393        -0.658896         5.026834
 H         1.000950        -2.225956         2.355062
 H        -0.039095        -2.592037         3.694650
 H        -1.708211        -1.125303         3.185242
 H        -0.990871        -1.462052         0.450988
 H        -1.854435         0.043468         0.751068
 H        -0.112993         1.241069        -1.015623
 H         1.243498         2.045018        -0.024795
 H         2.250626         0.137586         2.249666
 H         1.126348         1.460405         2.574405
