19
Iteration:  2505
 O         0.226813        -0.274340         4.598550
 C         0.326620        -0.348027         3.176670
 C         0.301515        -1.759662         2.588873
 C        -0.939941        -0.815758         2.462156
 C        -1.022592        -0.082777         1.119836
 C         0.466912         0.322976         0.954365
 C         0.790151         0.789528        -0.350129
 O         1.306685        -0.457243         0.070050
 C         0.990109         0.767219         2.392671
 H         0.973624        -0.461640         5.142459
 H         0.996231        -2.105878         1.764029
 H         0.321970        -2.633053         3.324782
 H        -1.911600        -1.026643         2.942267
 H        -1.333682        -0.741843         0.284023
 H        -1.551215         0.924791         1.087962
 H         0.173637         0.776257        -1.227217
 H         1.633867         1.409481        -0.506862
 H         2.133957         0.707258         2.313796
 H         0.576370         1.790848         2.775708
