19
Iteration:  1248
 O         0.398997        -0.105567         4.666993
 C         0.223571        -0.354793         3.212451
 C         0.085911        -1.781300         2.967149
 C        -1.039192        -0.858857         2.450474
 C        -0.920194        -0.314981         1.042953
 C         0.425626         0.271504         0.855180
 C         0.810016         1.060700        -0.321809
 O         1.368784        -0.259100        -0.150418
 C         1.114694         0.434097         2.290117
 H         0.927427        -0.833141         5.036789
 H         0.611569        -2.344998         2.068850
 H        -0.432336        -2.456271         3.666916
 H        -2.079213        -0.861625         2.858995
 H        -1.117314        -1.024463         0.321085
 H        -1.597246         0.497044         0.736920
 H         0.043580         1.109924        -1.083633
 H         1.413575         1.974326        -0.113531
 H         2.120067         0.250649         2.447984
 H         0.934471         1.474466         2.561593
