19
Iteration:  2572charge 0 multiplicity 1
 O         0.275314         0.081384         4.530287
 C         0.258331        -0.561858         3.237703
 C         0.288316        -1.910736         2.691863
 C        -0.892249        -0.958554         2.409715
 C        -0.965639        -0.115968         1.149166
 C         0.424319         0.266619         0.949939
 C         0.925698         1.012135        -0.265738
 O         1.187084        -0.432861         0.016115
 C         0.959105         0.644371         2.295984
 H         1.137845        -0.317623         4.885385
 H         1.052110        -2.222137         2.007817
 H         0.059439        -2.769777         3.372159
 H        -1.737944        -1.331533         2.760841
 H        -1.312393        -0.601188         0.238293
 H        -1.628099         0.778369         1.454623
 H         0.158295         1.355246        -1.013479
 H         1.778286         1.616120        -0.229731
 H         2.059669         0.389467         2.180466
 H         0.560414         1.637180         2.704390
