19
Iteration:   171
 O         0.225602         0.017211         4.464940
 C         0.372764        -0.450319         3.185265
 C         0.132002        -1.959059         2.723732
 C        -0.950430        -0.889426         2.503891
 C        -0.969564        -0.218901         1.185601
 C         0.477635         0.325556         0.949430
 C         0.917698         0.962332        -0.286148
 O         1.220900        -0.377329        -0.004564
 C         1.049530         0.566755         2.307169
 H         1.091855         0.091153         4.862771
 H         0.779256        -2.200436         1.894787
 H         0.078318        -2.594130         3.543714
 H        -1.806419        -0.959824         3.161657
 H        -1.398316        -0.776629         0.329805
 H        -1.596851         0.747979         1.217116
 H         0.255374         1.083222        -1.246313
 H         1.647911         1.778721        -0.313148
 H         2.143259         0.368580         2.238520
 H         0.807151         1.598230         2.842088
