19
Iteration:  1512charge 0 multiplicity 1
 O         0.273484        -0.043935         4.627974
 C         0.252474        -0.394128         3.235501
 C         0.432016        -1.782906         2.595626
 C        -0.913753        -0.986150         2.389203
 C        -1.022857        -0.015977         1.155780
 C         0.442917         0.331169         0.912713
 C         0.940091         0.871386        -0.298197
 O         1.154246        -0.535454        -0.038791
 C         1.001716         0.644407         2.406040
 H        -0.038207        -0.823910         5.118795
 H         1.148507        -1.968874         1.814153
 H         0.065166        -2.760259         2.911895
 H        -1.806101        -1.298003         3.044987
 H        -1.465313        -0.453294         0.297831
 H        -1.513211         0.998413         1.449257
 H         0.202250         1.149153        -1.042103
 H         1.776200         1.441838        -0.339044
 H         2.082405         0.677169         2.579816
 H         0.620855         1.712628         2.703656
