19
Iteration:  4841
 O         0.392109        -0.093985         4.667917
 C         0.349164        -0.366875         3.255830
 C         0.513750        -1.762676         2.764802
 C        -0.811433        -1.192037         2.510644
 C        -1.046936        -0.555954         1.096894
 C         0.259834         0.350394         0.839094
 C         0.685006         1.073712        -0.335153
 O         1.334165        -0.205164        -0.013442
 C         0.815734         0.681200         2.239790
 H         0.071422         0.833464         4.579873
 H         1.298416        -1.956463         2.019588
 H         0.513805        -2.533232         3.574481
 H        -1.587172        -1.320157         3.240209
 H        -0.963916        -1.206761         0.271120
 H        -1.988862        -0.009156         0.932280
 H         0.035710         1.089941        -1.263490
 H         1.313155         1.907845        -0.277854
 H         1.839860         1.116786         2.075997
 H         0.180187         1.547748         2.645721
