19
Iteration:  4181
 O         0.349362         0.001563         4.578398
 C         0.298172        -0.409113         3.203785
 C         0.407397        -1.898766         2.968977
 C        -0.867420        -0.969461         2.470881
 C        -0.869811        -0.402488         1.090113
 C         0.429192         0.293893         0.910875
 C         0.591173         1.127030        -0.321682
 O         1.204587        -0.237984        -0.156811
 C         1.019946         0.522934         2.325240
 H        -0.506612        -0.242904         4.922271
 H         1.213239        -2.193373         2.250526
 H         0.155055        -2.456816         3.849746
 H        -1.821043        -1.211001         2.831846
 H        -1.039939        -1.173534         0.241517
 H        -1.731230         0.174906         0.742941
 H        -0.033249         1.153077        -1.218825
 H         1.267217         1.984231        -0.291905
 H         2.118703         0.330247         2.215987
 H         0.923951         1.677344         2.658272
