19
Iteration:  4627charge 0 multiplicity 1
 O         0.338908         0.044028         4.654680
 C         0.355841        -0.438859         3.219019
 C         0.429801        -1.887433         2.907081
 C        -0.903322        -1.066251         2.598043
 C        -0.944297        -0.540097         1.038543
 C         0.303665         0.329920         0.858224
 C         0.678459         1.141616        -0.337970
 O         1.284908        -0.162408        -0.203529
 C         1.005515         0.579885         2.286216
 H        -0.586658         0.215658         4.959926
 H         0.938770        -2.258507         2.021417
 H         0.656783        -2.663047         3.674760
 H        -1.827408        -1.229526         3.134579
 H        -1.105464        -1.396218         0.333225
 H        -1.894288         0.015200         0.994930
 H        -0.013910         1.275425        -1.227792
 H         1.408420         1.976332        -0.285574
 H         2.083345         0.351682         2.319059
 H         0.766344         1.612272         2.750334
