19
Iteration:  4840charge 0 multiplicity 1
 O         0.397960        -0.088360         4.676600
 C         0.348475        -0.372909         3.254118
 C         0.515771        -1.764300         2.764870
 C        -0.816752        -1.197295         2.506417
 C        -1.046739        -0.552721         1.102317
 C         0.260323         0.359476         0.828083
 C         0.689165         1.065210        -0.336239
 O         1.332595        -0.202465        -0.010020
 C         0.812437         0.681337         2.242920
 H         0.028117         0.806805         4.580044
 H         1.256641        -1.946197         2.000657
 H         0.551118        -2.547926         3.566599
 H        -1.577668        -1.308367         3.247379
 H        -0.965245        -1.228017         0.231531
 H        -1.982134        -0.009577         0.905247
 H         0.007555         1.096830        -1.247900
 H         1.336355         1.903573        -0.302075
 H         1.835187         1.106301         2.094066
 H         0.183815         1.571289         2.642406
