19
Iteration:  3050
 O         0.212959        -0.001498         4.576476
 C         0.282153        -0.381129         3.199320
 C         0.288153        -1.810460         2.757799
 C        -0.857787        -0.860417         2.507893
 C        -1.004924        -0.275539         1.103349
 C         0.443871         0.258790         0.940339
 C         0.888984         1.084727        -0.212618
 O         1.166883        -0.380637        -0.146383
 C         1.135295         0.447560         2.310716
 H        -0.077289        -0.838560         4.983663
 H         0.828270        -2.005904         1.875916
 H         0.295539        -2.456453         3.550585
 H        -1.735264        -0.984802         3.049466
 H        -1.129225        -0.856125         0.184523
 H        -1.850154         0.418937         0.996773
 H         0.145490         1.163936        -1.056545
 H         1.644460         1.822204        -0.168100
 H         2.186626         0.217104         2.488646
 H         1.010152         1.497515         2.655654
