19
Iteration:   463
 O         0.289194        -0.063377         4.684570
 C         0.252280        -0.282998         3.203209
 C         0.416361        -1.777853         2.664031
 C        -0.948996        -0.890628         2.468001
 C        -1.060685        -0.134429         1.132925
 C         0.431966         0.258158         0.908139
 C         0.925496         0.893590        -0.274371
 O         1.141391        -0.487481        -0.063205
 C         1.040760         0.609820         2.260107
 H         0.090044        -0.961865         4.987747
 H         1.200093        -1.802036         1.960393
 H         0.568789        -2.692336         3.280915
 H        -1.897933        -1.292779         2.907270
 H        -1.342368        -0.891890         0.280860
 H        -1.630881         0.811508         1.127345
 H         0.356579         1.213739        -1.088703
 H         1.680928         1.625712        -0.090309
 H         2.141813         0.457187         2.463150
 H         0.758883         1.661080         2.612313
