19
Iteration:  2495
 O         0.292073        -0.175566         4.538836
 C         0.288680        -0.423876         3.153117
 C         0.249581        -1.830147         2.640572
 C        -0.985336        -0.843958         2.435099
 C        -0.963148        -0.111723         1.102084
 C         0.437216         0.385440         1.001782
 C         0.832969         0.819037        -0.368693
 O         1.343576        -0.451958         0.065022
 C         0.972695         0.749243         2.440844
 H         1.135309        -0.599701         4.748078
 H         0.813669        -2.055174         1.703782
 H         0.109784        -2.545527         3.524029
 H        -1.810900        -1.214706         2.997004
 H        -1.479793        -0.653094         0.323378
 H        -1.570289         0.767928         1.270931
 H        -0.068614         0.727202        -1.022784
 H         1.541357         1.606642        -0.554282
 H         2.107046         0.706121         2.539496
 H         0.568794         1.791037         2.679677
