19
Iteration:  2803charge 0 multiplicity 1
 O         0.391417         0.022777         4.577378
 C         0.238084        -0.423136         3.291761
 C        -0.006073        -1.929524         2.966385
 C        -1.024529        -0.870996         2.553801
 C        -0.875932        -0.534089         1.017904
 C         0.412352         0.223577         0.855230
 C         0.735777         1.223688        -0.249219
 O         1.405932        -0.047696        -0.160280
 C         1.120491         0.236409         2.236696
 H         0.928117         0.840778         4.412042
 H         0.597803        -2.416441         2.259348
 H        -0.160269        -2.410607         3.929390
 H        -2.104492        -0.555579         2.881511
 H        -0.829276        -1.451632         0.387576
 H        -1.780903         0.189030         0.708312
 H         0.249549         1.307406        -1.183079
 H         1.275361         2.082231        -0.080749
 H         2.144305        -0.184912         1.993038
 H         1.229772         1.313452         2.675862
