19
Iteration:  1950
 O         0.407895         0.000650         4.430344
 C         0.280106        -0.449724         3.179669
 C         0.015694        -1.894282         2.931353
 C        -1.062387        -0.888264         2.594494
 C        -0.948939        -0.404547         1.090677
 C         0.421128         0.257245         0.910163
 C         0.825700         1.144336        -0.209648
 O         1.470438        -0.212173        -0.094840
 C         1.047857         0.463965         2.245452
 H         0.767533        -0.641308         5.022092
 H         0.335924        -2.448175         1.941825
 H        -0.181926        -2.507163         3.861467
 H        -2.121420        -0.882828         3.034365
 H        -1.324084        -1.003480         0.231813
 H        -1.810062         0.364737         0.816727
 H         0.355515         1.321291        -1.137349
 H         1.503002         2.005632        -0.036236
 H         2.072972         0.316508         2.222873
 H         0.917390         1.542378         2.491472
