19
Iteration:  4713
 O         0.358811         0.034371         4.583246
 C         0.347386        -0.383346         3.196547
 C         0.511613        -1.849214         2.779902
 C        -0.806742        -1.158007         2.549352
 C        -1.054064        -0.456831         1.057904
 C         0.348782         0.327837         0.870036
 C         0.692575         1.033653        -0.296423
 O         1.264392        -0.233350        -0.014580
 C         0.885034         0.739710         2.240620
 H        -0.224052        -0.658919         4.936824
 H         1.255001        -2.019313         2.000541
 H         0.492967        -2.615618         3.638571
 H        -1.638389        -1.488708         3.178696
 H        -1.280955        -1.222813         0.316964
 H        -1.955424         0.247570         1.050310
 H        -0.154359         1.121631        -1.007176
 H         1.433182         1.724967        -0.162288
 H         1.970242         0.768423         2.373509
 H         0.550280         1.712485         2.523820
