19
Iteration:  3683charge 0 multiplicity 1
 O         0.334344        -0.224993         4.662142
 C         0.257068        -0.360192         3.179490
 C         0.329890        -1.738525         2.634553
 C        -0.950819        -0.866888         2.532959
 C        -0.988167        -0.277037         1.216732
 C         0.430936         0.311119         0.879636
 C         0.910598         0.927674        -0.404254
 O         1.294560        -0.420439         0.028424
 C         0.831191         0.741888         2.272597
 H         1.322738        -0.176456         4.842469
 H         0.908195        -2.003764         1.663136
 H         0.308316        -2.472037         3.461212
 H        -1.846747        -1.011273         3.143031
 H        -1.203237        -1.164113         0.476394
 H        -1.889762         0.373165         1.079663
 H         0.242195         0.904243        -1.232648
 H         1.562282         1.841837        -0.477909
 H         1.926234         0.915284         2.461811
 H         0.265737         1.679317         2.525107
