19
Iteration:  1665charge 0 multiplicity 1
 O         0.184269         0.115787         4.540417
 C         0.266050        -0.460048         3.256954
 C         0.072648        -1.965348         2.980067
 C        -0.908980        -0.929187         2.449563
 C        -0.866963        -0.256681         1.111035
 C         0.541175         0.299195         0.906419
 C         0.758415         1.168036        -0.247681
 O         1.253898        -0.209263        -0.244863
 C         1.222943         0.260048         2.257212
 H         0.431395        -0.596888         5.189082
 H         0.980913        -2.212564         2.403692
 H        -0.161438        -2.642388         3.769328
 H        -1.883342        -0.967579         3.002009
 H        -1.064313        -0.978007         0.305291
 H        -1.692354         0.555995         0.938679
 H        -0.167737         1.364576        -0.828694
 H         1.478285         1.990277        -0.221707
 H         2.114768        -0.240999         2.141609
 H         1.434511         1.264474         2.724590
