19
Iteration:    38charge 0 multiplicity 1
 O         0.473024        -0.258405         4.616668
 C         0.212509        -0.289917         3.235586
 C         0.082947        -1.763005         2.714877
 C        -1.013122        -0.750199         2.579837
 C        -1.005144        -0.400242         1.119096
 C         0.441437         0.226239         0.888017
 C         1.007805         1.011152        -0.364172
 O         1.336203        -0.359548        -0.010276
 C         0.845491         0.700350         2.277945
 H         1.327362        -0.660061         4.689466
 H         0.606589        -2.185274         1.819644
 H        -0.035046        -2.522973         3.537405
 H        -2.006788        -0.889499         3.028310
 H        -1.189110        -1.278047         0.474831
 H        -1.755263         0.559909         0.845623
 H         0.350599         1.078555        -1.293965
 H         1.940769         1.827440        -0.254676
 H         1.991972         0.744404         2.407557
 H         0.466922         1.819184         2.362201
