19
Iteration:  1602charge 0 multiplicity 1
 O         0.353474        -0.097946         4.596264
 C         0.319948        -0.380119         3.213873
 C        -0.021627        -1.792776         2.759784
 C        -1.018897        -0.834512         2.533833
 C        -0.918108        -0.392835         1.092342
 C         0.488283         0.134691         0.904110
 C         0.862484         1.054046        -0.165870
 O         1.346929        -0.265083        -0.278389
 C         1.007838         0.521122         2.374975
 H         1.270936         0.114342         4.948342
 H         0.596269        -2.262983         2.022078
 H        -0.045761        -2.375735         3.644291
 H        -1.914717        -0.584853         3.026308
 H        -1.181088        -1.251212         0.478482
 H        -1.655690         0.388832         0.686374
 H         0.175365         1.457131        -0.846509
 H         1.549047         1.925110         0.036647
 H         2.211415         0.572452         2.487639
 H         0.656093         1.525574         2.592143
