19
Iteration:  1369charge 0 multiplicity 1
 O         0.058885         0.009813         4.543786
 C         0.415482        -0.479938         3.251012
 C         0.138715        -1.869689         2.787326
 C        -0.835387        -0.853171         2.522260
 C        -0.918510        -0.279000         1.156728
 C         0.472418         0.260911         0.910957
 C         0.936737         1.082618        -0.205655
 O         1.139645        -0.325375        -0.230536
 C         1.140412         0.426786         2.300461
 H         0.816951         0.220986         5.074942
 H         0.874853        -2.109032         1.948354
 H        -0.100955        -2.740552         3.463021
 H        -1.725941        -0.743642         3.081010
 H        -1.098524        -1.058665         0.480865
 H        -1.724974         0.461238         0.971163
 H         0.087335         1.504338        -0.772217
 H         1.719416         1.732143         0.023842
 H         2.156443         0.201509         2.116519
 H         1.117195         1.538295         2.642034
