19
Iteration:   436charge 0 multiplicity 1
 O         0.383972        -0.109618         4.612213
 C         0.379770        -0.307931         3.181588
 C         0.171715        -1.820368         2.776279
 C        -0.921982        -0.893276         2.537986
 C        -1.041390        -0.258093         1.138701
 C         0.438609         0.334014         0.894687
 C         0.930750         0.958833        -0.357875
 O         1.254925        -0.407446        -0.052284
 C         0.934212         0.626367         2.257788
 H        -0.224838        -0.807171         4.864890
 H         0.858349        -2.235069         1.957863
 H         0.011499        -2.574805         3.545184
 H        -1.719362        -0.925944         3.251766
 H        -1.206574        -0.940904         0.354105
 H        -1.797077         0.532532         0.978089
 H         0.149658         1.089387        -1.265216
 H         1.882688         1.674317        -0.227265
 H         2.046058         0.641876         2.386212
 H         0.591020         1.568026         2.770853
