19
Iteration:  2851
 O         0.195085        -0.038501         4.586176
 C         0.321960        -0.408489         3.200111
 C         0.151747        -1.924425         2.948835
 C        -0.942732        -0.845556         2.615949
 C        -0.887701        -0.394444         1.074005
 C         0.496930         0.224274         0.830667
 C         0.856436         1.094997        -0.288047
 O         1.246157        -0.197906        -0.217861
 C         1.077561         0.509334         2.252692
 H         1.040348        -0.221130         5.006929
 H         0.651043        -2.361567         2.018367
 H        -0.136946        -2.622309         3.756562
 H        -1.850138        -0.888976         3.116272
 H        -0.976254        -1.286642         0.361591
 H        -1.655289         0.354230         0.922908
 H        -0.003638         1.426937        -0.932494
 H         1.539942         1.994805        -0.030863
 H         2.143568         0.247835         2.264068
 H         0.801356         1.498113         2.731197
