19
Iteration:   426charge 0 multiplicity 1
 O         0.435371        -0.043420         4.593408
 C         0.332177        -0.448775         3.178181
 C         0.107333        -1.949841         2.787686
 C        -0.971338        -0.872532         2.515707
 C        -0.978969        -0.261429         1.124708
 C         0.390411         0.366759         0.877487
 C         0.909428         0.946177        -0.375204
 O         1.280252        -0.348017         0.011695
 C         1.031172         0.670346         2.280851
 H        -0.189134        -0.647666         5.011251
 H         0.714309        -2.298580         1.876121
 H         0.066146        -2.597162         3.670935
 H        -1.897344        -0.882402         3.093089
 H        -1.158612        -1.062605         0.437990
 H        -1.817303         0.435089         1.029958
 H         0.119577         0.999152        -1.239188
 H         1.714622         1.822725        -0.355117
 H         2.161184         0.837298         2.318081
 H         0.511728         1.672499         2.529799
