19
Iteration:  1988
 O         0.242174         0.082113         4.608905
 C         0.303794        -0.438851         3.300427
 C         0.052170        -1.909292         3.000072
 C        -0.952151        -0.872041         2.462018
 C        -0.902774        -0.373642         0.992985
 C         0.451067         0.305269         0.853032
 C         0.858459         1.171600        -0.200459
 O         1.216221        -0.217963        -0.310892
 C         1.205304         0.317617         2.319837
 H         0.711101        -0.565692         5.211334
 H         0.589524        -2.307135         2.192976
 H        -0.217510        -2.566520         3.797757
 H        -1.885870        -1.165356         2.861915
 H        -0.812327        -1.241526         0.366560
 H        -1.666445         0.290795         0.853221
 H         0.094873         1.561663        -1.042706
 H         1.644288         1.957029         0.009848
 H         2.326822        -0.039292         2.108953
 H         1.192327         1.276923         2.854091
