19
Iteration:   929
 O         0.300651        -0.071305         4.549070
 C         0.251832        -0.374322         3.158013
 C         0.043342        -1.867958         2.868677
 C        -0.984198        -0.809827         2.520706
 C        -0.938860        -0.375283         1.111571
 C         0.436285         0.263567         0.916017
 C         0.838678         1.107841        -0.222987
 O         1.321935        -0.240202        -0.089985
 C         1.129106         0.429643         2.230200
 H         1.246641        -0.053666         4.642880
 H         0.457695        -2.497558         2.067770
 H         0.010504        -2.349464         3.799019
 H        -1.973697        -0.657542         3.072917
 H        -0.979126        -1.252171         0.510359
 H        -1.753192         0.281864         0.743026
 H         0.172683         1.235777        -1.107026
 H         1.696349         1.729580        -0.088469
 H         2.092975         0.034279         2.112894
 H         1.255782         1.456558         2.640153
