19
Iteration:   250charge 0 multiplicity 1
 O         0.246042        -0.122063         4.606179
 C         0.359438        -0.354103         3.239255
 C         0.140283        -1.833103         2.883033
 C        -0.879904        -0.761224         2.499428
 C        -0.903420        -0.391257         1.030456
 C         0.433542         0.301791         0.949877
 C         0.904494         0.989308        -0.327681
 O         1.165618        -0.338191        -0.155305
 C         1.073165         0.625023         2.313654
 H         0.740626        -0.765779         5.102742
 H         0.509873        -2.451266         2.095878
 H        -0.176511        -2.582598         3.633169
 H        -1.858958        -0.734499         3.019897
 H        -1.002692        -1.207524         0.242242
 H        -1.653921         0.429292         0.741112
 H         0.175883         1.273960        -1.095806
 H         1.865112         1.453081        -0.190777
 H         2.160664         0.802500         2.236009
 H         0.627190         1.655332         2.669985
