19
Iteration:  2419charge 0 multiplicity 1
 O         0.208290        -0.057081         4.625198
 C         0.287393        -0.346373         3.223932
 C         0.139792        -1.830977         2.823659
 C        -0.968525        -0.863959         2.505280
 C        -0.905538        -0.354413         1.076033
 C         0.509681         0.244537         0.902889
 C         0.867831         1.130180        -0.237432
 O         1.218779        -0.327838        -0.254948
 C         1.133671         0.455208         2.364612
 H         1.043289        -0.340840         5.027015
 H         0.561423        -2.157234         1.792580
 H        -0.097710        -2.610250         3.579400
 H        -1.848962        -0.842561         3.224949
 H        -1.300095        -1.112888         0.421209
 H        -1.614083         0.414744         1.030277
 H         0.116609         1.428826        -1.047486
 H         1.785390         1.789116        -0.216319
 H         2.199050         0.290060         2.595025
 H         1.051948         1.512542         2.482118
