19
Iteration:  3521
 O         0.341238        -0.032126         4.568588
 C         0.299425        -0.408524         3.222082
 C         0.010566        -1.851189         3.032382
 C        -1.061239        -0.889152         2.504607
 C        -0.959064        -0.498979         1.119538
 C         0.516625         0.153765         0.874841
 C         0.705810         1.082604        -0.201490
 O         1.451654        -0.043163        -0.303787
 C         1.156597         0.349064         2.238662
 H         0.619753         0.892689         4.652152
 H         0.716573        -2.303237         2.293134
 H        -0.496468        -2.417778         3.853169
 H        -1.848113        -0.706862         3.178262
 H        -1.255864        -1.332775         0.447281
 H        -1.607131         0.315430         0.951493
 H         0.027717         1.191700        -1.066504
 H         1.275983         2.138228        -0.076883
 H         2.246009         0.159213         2.341852
 H         1.125401         1.437754         2.419903
