19
Iteration:  3857charge 0 multiplicity 1
 O         0.295127         0.003131         4.543627
 C         0.311630        -0.353582         3.162261
 C         0.165102        -1.941251         3.004005
 C        -0.914237        -1.003277         2.551377
 C        -0.966269        -0.505221         1.129630
 C         0.448497         0.175771         0.844695
 C         0.687288         1.183512        -0.235072
 O         1.312534        -0.115673        -0.229654
 C         1.103453         0.479160         2.254304
 H         0.952973         0.659084         4.777656
 H         0.927645        -2.143515         2.187353
 H        -0.083458        -2.714326         3.940912
 H        -1.865131        -1.088115         3.108779
 H        -1.002187        -1.393790         0.399195
 H        -1.762347         0.260444         0.927769
 H         0.048148         1.349663        -1.070360
 H         1.418175         1.995873         0.085801
 H         2.220694         0.280766         2.273851
 H         0.902651         1.597492         2.528766
