19
Iteration:   399
 O         0.549078         0.050702         4.499652
 C         0.250189        -0.444411         3.132019
 C         0.047882        -1.888222         2.822392
 C        -1.014366        -0.898294         2.439775
 C        -0.955097        -0.275208         1.061000
 C         0.414180         0.317954         0.929485
 C         0.772713         0.960974        -0.313720
 O         1.406580        -0.266315         0.067627
 C         1.008603         0.509210         2.350071
 H         0.137840        -0.688966         4.937285
 H         0.708303        -2.310233         2.142554
 H        -0.220481        -2.552192         3.654124
 H        -1.970195        -0.940106         3.015613
 H        -1.084042        -1.143513         0.347055
 H        -1.722753         0.533796         0.992344
 H        -0.044368         0.933159        -1.072560
 H         1.297334         1.850836        -0.450626
 H         2.043340         0.323163         2.358556
 H         0.798517         1.491745         2.672342
