19
Iteration:  1571
 O         0.259204        -0.110421         4.643092
 C         0.310589        -0.399557         3.235047
 C         0.202052        -1.818030         2.793970
 C        -0.955086        -0.924830         2.461266
 C        -0.969762        -0.177370         1.079923
 C         0.393789         0.368834         0.886972
 C         0.897888         1.059388        -0.369231
 O         1.254211        -0.358694        -0.044721
 C         1.047658         0.477128         2.285417
 H         0.985120        -0.547801         5.078656
 H         0.887468        -2.292179         2.083127
 H        -0.108552        -2.399266         3.672300
 H        -1.823498        -0.949206         3.052120
 H        -1.164892        -0.960517         0.326147
 H        -1.751571         0.513666         0.956626
 H         0.193601         1.164979        -1.204315
 H         1.766310         1.799758        -0.215334
 H         2.172032         0.114208         2.236703
 H         1.004890         1.460735         2.685042
