19
Iteration:  4301
 O         0.304496         0.014061         4.604890
 C         0.342714        -0.354203         3.222987
 C         0.291938        -1.870251         2.938338
 C        -0.885249        -0.927961         2.496896
 C        -0.870251        -0.513718         1.097109
 C         0.406971         0.227877         0.862475
 C         0.527270         1.119416        -0.173638
 O         1.365931        -0.183022        -0.196629
 C         1.075380         0.571199         2.161628
 H         0.381459        -0.844450         5.118805
 H         0.659201        -2.339086         2.070796
 H        -0.047728        -2.390945         3.880695
 H        -1.830702        -1.063145         3.008073
 H        -1.070646        -1.341549         0.261734
 H        -1.779267         0.073004         0.923076
 H        -0.165633         0.936992        -1.036423
 H         1.050072         2.026875         0.069753
 H         2.158501         0.467862         2.039758
 H         0.770372         1.584854         2.582832
