19
Iteration:  2138
 O         0.278546        -0.191771         4.608364
 C         0.274456        -0.394542         3.204280
 C         0.185850        -1.809822         2.696205
 C        -0.968490        -0.924275         2.475491
 C        -0.946657        -0.142494         1.170453
 C         0.443795         0.424708         0.938679
 C         0.802743         0.891933        -0.442436
 O         1.351329        -0.372941         0.022598
 C         1.010901         0.646586         2.332006
 H         1.072096        -0.564022         5.077442
 H         0.795919        -1.993366         1.833628
 H         0.070121        -2.551279         3.462681
 H        -1.801932        -1.101126         3.142140
 H        -1.270789        -0.705022         0.268445
 H        -1.779445         0.627690         1.034370
 H         0.202492         0.694929        -1.335786
 H         1.508178         1.628096        -0.655354
 H         2.108060         0.484772         2.442013
 H         0.891491         1.631703         2.868512
