19
Iteration:  3552charge 0 multiplicity 1
 O         0.203380         0.149056         4.537152
 C         0.327783        -0.439480         3.203899
 C         0.047075        -1.989088         2.986230
 C        -0.922820        -0.943768         2.496595
 C        -0.833890        -0.455536         1.095391
 C         0.466822         0.238397         0.908807
 C         0.715140         1.204856        -0.241127
 O         1.262621        -0.146633        -0.215345
 C         1.195058         0.351751         2.250028
 H         1.067572         0.171860         5.020368
 H         0.665922        -2.624478         2.334475
 H        -0.400594        -2.616981         3.816717
 H        -1.695149        -0.631345         3.137550
 H        -0.961860        -1.299701         0.348020
 H        -1.615456         0.241751         0.919695
 H         0.025658         1.241116        -1.099099
 H         1.491474         2.079385        -0.100518
 H         2.177077        -0.114100         2.136464
 H         1.348094         1.341256         2.657293
