19
Iteration:  2367
 O         0.084979         0.057756         4.433642
 C         0.372733        -0.459690         3.145346
 C         0.084419        -1.927857         2.942559
 C        -0.967536        -0.991492         2.514638
 C        -0.956818        -0.238447         1.198829
 C         0.475516         0.304034         0.958490
 C         0.832717         1.091856        -0.291531
 O         1.264787        -0.177257        -0.183384
 C         1.309569         0.317445         2.264158
 H         0.727315        -0.103001         5.169925
 H         0.983790        -2.378520         2.476297
 H        -0.017591        -2.479461         3.871842
 H        -1.811222        -1.115417         3.205977
 H        -1.476862        -0.903226         0.445625
 H        -1.703306         0.643725         1.362155
 H         0.039517         1.357675        -1.117213
 H         1.445020         2.017153        -0.231324
 H         2.284081        -0.126802         2.081366
 H         1.624898         1.278190         2.652769
