19
Iteration:  2309
 O         0.288397        -0.069433         4.617573
 C         0.230024        -0.359001         3.195142
 C         0.072775        -1.848406         2.924626
 C        -0.989866        -0.897050         2.540370
 C        -0.922285        -0.400981         1.079151
 C         0.491806         0.297445         0.875961
 C         0.907438         1.133879        -0.222882
 O         1.269069        -0.263444        -0.296327
 C         1.078993         0.486342         2.312672
 H         1.230490        -0.219104         4.812339
 H         0.618022        -2.312136         2.024154
 H         0.050616        -2.447149         3.872201
 H        -1.998073        -0.841950         3.061433
 H        -0.978900        -1.336545         0.480375
 H        -1.737403         0.239623         0.788863
 H         0.047144         1.487531        -0.855649
 H         1.826461         1.790688         0.000895
 H         2.012031        -0.040303         2.379541
 H         1.085314         1.486675         2.553527
