19
Iteration:  3636charge 0 multiplicity 1
 O         0.291062        -0.069724         4.508627
 C         0.282691        -0.441195         3.222324
 C         0.215573        -1.865751         2.866266
 C        -0.881208        -0.948557         2.489853
 C        -0.896703        -0.354762         1.119410
 C         0.409611         0.331601         0.923727
 C         0.702955         1.052080        -0.316345
 O         1.299500        -0.281454        -0.035399
 C         1.082313         0.507237         2.260952
 H         0.156957         0.878559         4.605489
 H         0.883294        -2.162382         2.104084
 H        -0.018957        -2.581350         3.663798
 H        -1.767652        -1.066100         3.083477
 H        -1.265131        -0.902186         0.250897
 H        -1.506971         0.620576         1.147003
 H         0.071347         1.248050        -1.163244
 H         1.488705         1.690592        -0.321407
 H         2.186065         0.397197         2.305278
 H         0.850400         1.542705         2.684415
