19
Iteration:    10charge 0 multiplicity 1
 O         0.290358        -0.156508         4.593997
 C         0.361927        -0.397809         3.250015
 C         0.213962        -1.772480         2.711099
 C        -0.970263        -0.813582         2.513218
 C        -1.019905        -0.255383         1.097195
 C         0.399701         0.298325         0.964799
 C         0.912962         0.985152        -0.243200
 O         1.281346        -0.446277        -0.086544
 C         0.995370         0.644315         2.278160
 H         1.135750        -0.401538         4.970568
 H         0.682454        -1.976227         1.801623
 H         0.059278        -2.501916         3.514380
 H        -1.928678        -0.876696         2.980396
 H        -1.089678        -0.913171         0.179659
 H        -1.655004         0.456396         0.878005
 H         0.320823         1.025609        -1.160712
 H         1.489806         1.784663        -0.178308
 H         2.050777         0.640506         2.281606
 H         0.567806         1.561495         2.488548
