19
Iteration:   485
 O         0.211285         0.007554         4.543277
 C         0.338594        -0.416335         3.250053
 C         0.387911        -1.813500         2.655719
 C        -0.885905        -0.932041         2.376904
 C        -0.977873        -0.128921         1.188194
 C         0.369295         0.418268         0.903005
 C         0.929187         0.873561        -0.322676
 O         1.120437        -0.477093         0.019023
 C         1.036917         0.583939         2.375553
 H         0.584666        -0.570427         5.246372
 H         1.046499        -2.059854         1.854148
 H         0.236233        -2.678782         3.311901
 H        -1.859783        -1.330862         2.748411
 H        -1.562612        -0.766757         0.401810
 H        -1.646426         0.705989         1.470315
 H         0.177083         1.036635        -1.070025
 H         1.816995         1.500435        -0.442737
 H         2.162830         0.417287         2.310074
 H         0.860255         1.664507         2.777182
