19
Iteration:  2372
 O         0.078913         0.037337         4.451233
 C         0.360427        -0.433700         3.166332
 C         0.087863        -1.953309         2.956781
 C        -0.938534        -0.986974         2.479810
 C        -0.945905        -0.212130         1.205803
 C         0.496783         0.278198         0.945457
 C         0.783647         1.124816        -0.358020
 O         1.280049        -0.183457        -0.153249
 C         1.278673         0.303495         2.270003
 H         0.761795        -0.103621         5.099706
 H         0.949559        -2.314249         2.393794
 H        -0.018780        -2.413987         3.945940
 H        -1.773196        -0.922889         3.195914
 H        -1.424723        -0.741927         0.399099
 H        -1.698551         0.516156         1.419674
 H        -0.005549         1.268031        -1.013783
 H         1.498381         1.947146        -0.322262
 H         2.281980        -0.150707         2.030446
 H         1.708180         1.236403         2.801644
