19
Iteration:   345charge 0 multiplicity 1
 O         0.114083        -0.052153         4.614206
 C         0.409576        -0.442638         3.248349
 C         0.177328        -1.815323         2.939898
 C        -0.976130        -0.868733         2.579617
 C        -0.944292        -0.329869         1.053844
 C         0.491673         0.252235         0.894103
 C         0.928751         1.106684        -0.277522
 O         1.154419        -0.341668        -0.261349
 C         1.175052         0.552402         2.268198
 H         0.914633        -0.242874         5.134117
 H         0.642778        -2.255977         2.117535
 H        -0.028063        -2.573527         3.677999
 H        -1.874655        -1.078896         3.219143
 H        -1.012972        -1.147545         0.294665
 H        -1.744880         0.382987         0.752470
 H         0.100843         1.556053        -1.057010
 H         1.870449         1.642687        -0.266890
 H         2.235324         0.416253         2.181950
 H         0.955159         1.568722         2.544703
