19
Iteration:  3101charge 0 multiplicity 1
 O         0.294362         0.079607         4.460357
 C         0.337022        -0.521324         3.173278
 C         0.187631        -1.903236         3.018227
 C        -0.975864        -0.982752         2.494227
 C        -0.997926        -0.293203         1.109313
 C         0.453582         0.276657         0.914284
 C         0.823533         1.113574        -0.214139
 O         1.297371        -0.181293        -0.169830
 C         1.134459         0.394265         2.207459
 H        -0.205835        -0.625573         4.956318
 H         0.957258        -2.562598         2.454171
 H        -0.272269        -2.312917         3.947418
 H        -1.930902        -1.077293         3.051151
 H        -1.374585        -0.980330         0.251118
 H        -1.568002         0.681112         1.018958
 H         0.046930         1.493940        -0.877626
 H         1.582702         1.951189        -0.170346
 H         2.181888         0.066594         2.305811
 H         1.079782         1.414835         2.696818
