19
Iteration:  1922charge 0 multiplicity 1
 O         0.347103        -0.084842         4.655961
 C         0.290678        -0.397391         3.279102
 C         0.088297        -1.889860         2.778895
 C        -0.949567        -0.796125         2.512986
 C        -0.955425        -0.283963         1.018995
 C         0.461641         0.274821         0.884460
 C         0.769587         1.038633        -0.320749
 O         1.383799        -0.320502        -0.066111
 C         1.035989         0.539285         2.307373
 H         0.865582        -0.797383         5.030993
 H         0.652834        -2.111698         1.947421
 H        -0.172190        -2.674544         3.469460
 H        -1.932146        -0.894929         2.920920
 H        -1.212686        -1.115400         0.346352
 H        -1.759718         0.427415         0.791546
 H         0.236386         1.153976        -1.352960
 H         1.395568         1.935472        -0.333906
 H         2.227081         0.637421         2.400174
 H         0.623458         1.525321         2.541304
