19
Iteration:   607charge 0 multiplicity 1
 O         0.336833        -0.065079         4.518183
 C         0.402322        -0.473070         3.199368
 C         0.054773        -1.933809         2.944832
 C        -0.952088        -0.900924         2.525385
 C        -0.991069        -0.220192         1.170693
 C         0.449175         0.286200         0.856921
 C         0.896008         1.077820        -0.351279
 O         1.288448        -0.249591        -0.096041
 C         1.110353         0.459352         2.237643
 H        -0.522604         0.449020         4.595314
 H         0.520674        -2.620255         2.236534
 H        -0.291826        -2.572341         3.805710
 H        -1.862198        -0.762037         3.141310
 H        -1.232416        -1.037968         0.384711
 H        -1.683225         0.633441         1.131743
 H         0.345406         1.128290        -1.358306
 H         1.519016         1.915680        -0.024435
 H         2.213975         0.341987         2.191497
 H         0.873782         1.434883         2.859588
