19
Iteration:  3592charge 0 multiplicity 1
 O         0.231855         0.121786         4.590110
 C         0.275514        -0.402257         3.296238
 C         0.269371        -1.876116         2.987168
 C        -0.850341        -0.928352         2.502547
 C        -0.909448        -0.411676         1.089276
 C         0.439760         0.176285         0.813125
 C         0.876309         1.179954        -0.176910
 O         1.155288        -0.218564        -0.312118
 C         1.112172         0.351197         2.267500
 H        -0.514925        -0.432533         4.881528
 H         0.954180        -2.078322         2.248675
 H        -0.092664        -2.653306         3.705624
 H        -1.897795        -0.921292         2.893800
 H        -1.185551        -1.151308         0.328394
 H        -1.712000         0.437975         1.056312
 H         0.173093         1.446991        -0.953504
 H         1.564897         1.854146         0.119586
 H         2.135349        -0.033614         2.088547
 H         1.330176         1.442074         2.554658
