19
Iteration:  4176
 O         0.362651        -0.023718         4.556274
 C         0.277171        -0.434768         3.231965
 C         0.441646        -1.849497         2.973742
 C        -0.899996        -0.956040         2.450403
 C        -0.878638        -0.411823         1.078440
 C         0.421698         0.344000         0.922850
 C         0.616669         1.061654        -0.304129
 O         1.204567        -0.212038        -0.131703
 C         1.037309         0.538743         2.284020
 H        -0.517422        -0.283724         4.907787
 H         1.066711        -2.350823         2.259039
 H         0.182125        -2.490655         3.860447
 H        -1.927252        -1.231632         2.845789
 H        -0.880387        -1.133486         0.267078
 H        -1.715118         0.282882         0.833290
 H        -0.201818         1.018789        -1.052073
 H         1.258870         1.965290        -0.398424
 H         2.108686         0.399232         2.262291
 H         0.875138         1.519244         2.499663
