19
Iteration:   262charge 0 multiplicity 1
 O         0.189865        -0.013614         4.563275
 C         0.364277        -0.423596         3.193218
 C         0.158059        -1.862046         2.831948
 C        -0.909403        -0.838472         2.505257
 C        -0.961281        -0.299110         1.085538
 C         0.476276         0.283555         0.894302
 C         0.859996         1.060268        -0.260836
 O         1.231592        -0.399471        -0.134092
 C         1.077967         0.526841         2.325483
 H         0.954552        -0.459907         5.027361
 H         0.773047        -2.133388         1.973378
 H         0.080053        -2.472658         3.772415
 H        -1.732305        -0.715192         3.196422
 H        -1.148988        -1.139847         0.292292
 H        -1.797953         0.463354         1.059404
 H         0.224757         1.318424        -1.084159
 H         1.682930         1.796141        -0.254975
 H         2.190185         0.435764         2.335869
 H         0.740779         1.568193         2.637014
