19
Iteration:  4655
 O         0.288255        -0.129992         4.609030
 C         0.371757        -0.338802         3.185753
 C         0.344819        -1.755975         2.873918
 C        -0.828181        -1.021768         2.481202
 C        -0.841757        -0.559441         1.070042
 C         0.369304         0.269073         0.874294
 C         0.529435         1.053302        -0.286604
 O         1.290464        -0.187955        -0.122020
 C         1.004817         0.636559         2.301130
 H         0.560172         0.826556         4.800191
 H         1.053305        -2.308551         2.182147
 H         0.256937        -2.328809         3.765240
 H        -1.802037        -1.289846         2.941380
 H        -1.084496        -1.290674         0.321293
 H        -1.733805         0.141221         1.146313
 H        -0.177339         1.158330        -1.096346
 H         1.138188         1.989147        -0.115503
 H         2.109312         0.697586         2.382205
 H         0.529210         1.515866         2.605979
