19
Iteration:  2899
 O         0.179398        -0.011193         4.517480
 C         0.233787        -0.420988         3.187137
 C         0.410368        -1.829983         2.788305
 C        -0.860523        -0.937988         2.389534
 C        -0.952173        -0.139053         1.147124
 C         0.515423         0.327033         0.940786
 C         0.769339         1.058136        -0.260938
 O         1.175123        -0.454581         0.003438
 C         1.050827         0.533432         2.316095
 H         0.612990        -0.662587         5.131974
 H         1.166970        -1.970319         2.037150
 H         0.118125        -2.688824         3.383076
 H        -1.816732        -1.362926         2.869653
 H        -1.278937        -0.702012         0.325160
 H        -1.550011         0.724324         1.399167
 H        -0.039105         1.148335        -1.118301
 H         1.719906         1.595487        -0.572585
 H         2.067200         0.155315         2.381428
 H         0.823758         1.554667         2.458910
