19
Iteration:  2910charge 0 multiplicity 1
 O         0.208802         0.008349         4.519655
 C         0.295038        -0.446377         3.189553
 C         0.371369        -1.825600         2.667689
 C        -0.888490        -0.995639         2.370284
 C        -0.935846        -0.080006         1.167267
 C         0.507110         0.334655         0.975776
 C         0.812236         0.957730        -0.302883
 O         1.161042        -0.478696        -0.008018
 C         0.986931         0.579841         2.373898
 H         0.770942        -0.572454         5.033433
 H         1.265885        -2.044151         2.122554
 H         0.232691        -2.530394         3.468439
 H        -1.853732        -1.298135         2.892936
 H        -1.221454        -0.495857         0.246083
 H        -1.659892         0.702783         1.305430
 H        -0.142008         1.159379        -0.963326
 H         1.756994         1.563463        -0.322519
 H         2.049658         0.733506         2.591180
 H         0.604677         1.432194         2.860690
