19
Iteration:  1291
 O         0.192447         0.001744         4.528822
 C         0.328223        -0.457460         3.197627
 C         0.042230        -1.852814         2.857824
 C        -0.934163        -0.801189         2.576827
 C        -0.890431        -0.411120         1.148790
 C         0.526144         0.308199         0.933975
 C         0.853946         1.138276        -0.254201
 O         1.225152        -0.272178        -0.221838
 C         1.164931         0.415906         2.283505
 H         0.770698        -0.569308         5.052376
 H         0.662189        -2.275950         1.883064
 H        -0.030287        -2.612592         3.669205
 H        -1.882511        -0.777521         3.141595
 H        -0.936551        -1.201011         0.431639
 H        -1.801558         0.215506         1.001797
 H         0.156693         1.357201        -1.051996
 H         1.728221         1.838961        -0.163650
 H         2.182752         0.224053         2.140308
 H         0.880898         1.479857         2.771358
