19
Iteration:  1782charge 0 multiplicity 1
 O         0.325004        -0.165428         4.624500
 C         0.293213        -0.358404         3.192566
 C         0.103705        -1.816916         2.717598
 C        -1.013998        -0.833253         2.553937
 C        -0.949024        -0.293821         1.156378
 C         0.497878         0.299744         0.884502
 C         0.825034         0.960909        -0.351821
 O         1.448035        -0.319033        -0.050976
 C         0.992482         0.623141         2.293173
 H         0.688566        -0.975091         4.950778
 H         0.396406        -2.071532         1.719260
 H        -0.128669        -2.591381         3.400212
 H        -1.848149        -0.687989         3.318052
 H        -1.198275        -1.160197         0.429099
 H        -1.799499         0.543246         0.962638
 H         0.050030         1.000378        -1.133367
 H         1.418281         1.812856        -0.422766
 H         2.053362         0.716513         2.364977
 H         0.526860         1.610781         2.607084
