19
Iteration:  1765
 O         0.395143        -0.072445         4.493524
 C         0.252652        -0.455002         3.181255
 C         0.018141        -1.923178         2.811367
 C        -1.062454        -0.812647         2.564828
 C        -0.923657        -0.313024         1.110379
 C         0.548718         0.241752         0.930124
 C         0.767704         1.038488        -0.332910
 O         1.415346        -0.240087        -0.036453
 C         1.016727         0.608260         2.307411
 H         0.627205        -0.809695         5.038251
 H         0.696300        -2.385114         2.089858
 H         0.035969        -2.569295         3.759735
 H        -2.027180        -0.983778         2.904667
 H        -1.193169        -0.920025         0.280042
 H        -1.551989         0.544282         0.943410
 H         0.087034         0.934221        -1.170350
 H         1.547341         1.906735        -0.337851
 H         2.108412         0.446266         2.462942
 H         0.801038         1.649416         2.570911
