19
Iteration:  1310charge 0 multiplicity 1
 O         0.185317         0.080833         4.559488
 C         0.344265        -0.468728         3.231594
 C         0.181549        -2.001065         2.964431
 C        -0.961535        -0.937925         2.424104
 C        -0.980002        -0.207200         1.056000
 C         0.448734         0.293841         0.902400
 C         0.856861         1.112167        -0.263703
 O         1.230587        -0.238945        -0.129290
 C         1.183838         0.383515         2.248369
 H         1.102353        -0.081496         4.864512
 H         0.677297        -2.681096         2.252370
 H        -0.250834        -2.599314         3.763219
 H        -1.857024        -1.010410         3.105525
 H        -1.172635        -0.965750         0.194121
 H        -1.708485         0.626239         1.054851
 H         0.104869         1.328976        -0.964507
 H         1.601797         1.953026        -0.113104
 H         2.205419        -0.105131         2.156811
 H         1.259288         1.399679         2.764701
