19
Iteration:  4255charge 0 multiplicity 1
 O         0.309624         0.143121         4.566214
 C         0.355888        -0.459381         3.264380
 C         0.338042        -1.949365         2.967341
 C        -0.875265        -1.090938         2.485669
 C        -0.877986        -0.421278         1.078387
 C         0.353814         0.341120         0.946346
 C         0.617072         1.160520        -0.284472
 O         1.229426        -0.170182        -0.232437
 C         1.103395         0.440514         2.256800
 H        -0.488518        -0.062350         5.109375
 H         1.165441        -2.224446         2.334840
 H         0.052073        -2.410631         3.854267
 H        -1.805870        -1.361223         2.952855
 H        -0.784363        -1.232199         0.235051
 H        -1.786314         0.062846         0.746652
 H        -0.237230         1.294511        -0.961908
 H         1.387890         1.986274        -0.093799
 H         2.104175         0.078157         2.105084
 H         1.100067         1.481671         2.524217
