19
Iteration:  1815charge 0 multiplicity 1
 O         0.250512        -0.238107         4.640284
 C         0.279244        -0.335574         3.157810
 C         0.332200        -1.761214         2.717283
 C        -0.903377        -0.889962         2.438654
 C        -1.033796        -0.159108         1.098321
 C         0.433210         0.399394         0.908363
 C         0.957144         0.938701        -0.369580
 O         1.186341        -0.463450         0.109459
 C         0.988413         0.664139         2.290745
 H         1.178340        -0.513063         4.752981
 H         0.918424        -2.099912         1.919154
 H         0.058567        -2.599382         3.335827
 H        -1.808126        -1.105019         3.018124
 H        -1.222411        -0.808947         0.173784
 H        -2.001548         0.604041         1.078178
 H         0.227514         1.025158        -1.155093
 H         1.770629         1.577956        -0.233396
 H         2.045735         0.595182         2.293120
 H         0.708706         1.690980         2.655767
