19
Iteration:  1942charge 0 multiplicity 1
 O         0.399317        -0.008898         4.499193
 C         0.341536        -0.451775         3.202009
 C         0.030507        -1.882984         2.820064
 C        -1.095991        -0.854140         2.584362
 C        -0.999547        -0.396938         1.084309
 C         0.460847         0.261607         0.912049
 C         0.844572         1.048298        -0.218397
 O         1.477937        -0.183703        -0.108296
 C         0.975513         0.510243         2.242858
 H         0.779872        -0.642534         5.104899
 H         0.467272        -2.510164         2.012490
 H        -0.258662        -2.511211         3.686719
 H        -2.052666        -0.736863         3.142164
 H        -1.129740        -1.198241         0.345594
 H        -1.638531         0.403881         1.085512
 H         0.120783         1.243222        -1.165151
 H         1.554381         1.891027        -0.121941
 H         2.118476         0.239372         2.313849
 H         0.829634         1.522248         2.534875
