19
Iteration:  3385charge 0 multiplicity 1
 O         0.199046        -0.249301         4.534846
 C         0.381631        -0.421983         3.146337
 C         0.277002        -1.838883         2.723321
 C        -0.920644        -0.774563         2.537775
 C        -1.036256        -0.167703         1.113616
 C         0.379278         0.387744         0.890412
 C         0.929723         0.904096        -0.311403
 O         1.183166        -0.496680         0.003221
 C         1.091780         0.753695         2.355454
 H         0.977107         0.238673         4.810737
 H         0.779063        -2.149216         1.810824
 H         0.080442        -2.605946         3.458801
 H        -1.684335        -0.866522         3.395799
 H        -1.079687        -1.056969         0.511634
 H        -1.856013         0.474574         0.821046
 H         0.207535         1.281151        -1.122792
 H         1.793249         1.536282        -0.206833
 H         2.163115         0.722732         2.374050
 H         0.773135         1.663881         2.796155
