19
Iteration:  3866
 O         0.235410         0.015750         4.587098
 C         0.292837        -0.393028         3.218556
 C         0.177429        -1.877712         2.979148
 C        -0.889714        -0.974982         2.636554
 C        -0.939457        -0.559788         1.071574
 C         0.406188         0.195933         0.803814
 C         0.723842         1.203369        -0.206998
 O         1.339668        -0.111006        -0.276421
 C         1.112414         0.438577         2.207756
 H         1.113103         0.404880         4.714966
 H         0.721535        -2.376500         2.135301
 H         0.237824        -2.646346         3.901248
 H        -1.817094        -0.947506         3.292823
 H        -1.299144        -1.368571         0.466637
 H        -1.659844         0.238571         1.056613
 H         0.078149         1.353561        -1.084560
 H         1.235193         2.194971         0.054750
 H         2.195821         0.224038         2.260365
 H         0.895977         1.484801         2.423378
