19
Iteration:  1926charge 0 multiplicity 1
 O         0.368303        -0.049095         4.653459
 C         0.271743        -0.426264         3.225296
 C         0.033297        -1.891911         2.782277
 C        -0.941491        -0.805779         2.495852
 C        -0.965307        -0.305716         1.074194
 C         0.448124         0.237241         0.887703
 C         0.805641         1.046457        -0.323103
 O         1.416160        -0.284961        -0.079231
 C         1.043576         0.532024         2.309578
 H         0.857746        -0.816831         5.031043
 H         0.675682        -2.108516         1.889877
 H        -0.117257        -2.631413         3.567310
 H        -1.868747        -0.879173         3.060008
 H        -1.318977        -1.106967         0.378578
 H        -1.835793         0.373494         0.644102
 H         0.181860         1.132979        -1.149280
 H         1.353105         1.997172        -0.278864
 H         2.066493         0.639997         2.307375
 H         0.623457         1.537202         2.669533
