19
Iteration:  4515
 O         0.441596        -0.146163         4.584448
 C         0.242869        -0.345942         3.135947
 C         0.395698        -1.821771         2.805877
 C        -0.890692        -1.045489         2.495251
 C        -0.950053        -0.360651         1.106066
 C         0.427924         0.298709         0.899702
 C         0.664182         1.035793        -0.260395
 O         1.263701        -0.325414        -0.045718
 C         0.931310         0.744780         2.292052
 H        -0.289907         0.372700         4.968100
 H         1.033329        -2.298713         1.989406
 H         0.347812        -2.358193         3.807875
 H        -1.867218        -1.194296         2.981099
 H        -1.034431        -1.140996         0.365646
 H        -1.850505         0.321797         0.884445
 H        -0.029455         0.905830        -1.095639
 H         1.305116         1.879672        -0.328860
 H         2.063064         0.566206         2.347968
 H         0.699061         1.844338         2.492586
