19
Iteration:  2936
 O         0.209831        -0.174052         4.642218
 C         0.364396        -0.395969         3.207102
 C         0.303614        -1.875052         2.608725
 C        -0.854883        -0.907184         2.494663
 C        -1.038269        -0.152546         1.196339
 C         0.370760         0.429245         0.868817
 C         0.969328         0.911623        -0.383345
 O         1.230614        -0.484145         0.077066
 C         0.900506         0.758583         2.250737
 H         1.093083        -0.384865         4.985677
 H         1.025918        -1.986443         1.787730
 H         0.184265        -2.709996         3.319525
 H        -1.712438        -1.105559         3.073896
 H        -1.432078        -0.750683         0.317287
 H        -1.888692         0.574110         1.370472
 H         0.431944         1.113549        -1.257780
 H         1.902321         1.474499        -0.398192
 H         2.006059         0.807218         2.291080
 H         0.656305         1.691622         2.815041
