19
Iteration:  4767charge 0 multiplicity 1
 O         0.178311        -0.172452         4.634480
 C         0.388365        -0.373947         3.227296
 C         0.596163        -1.709091         2.682678
 C        -0.749109        -1.112379         2.498736
 C        -1.041697        -0.421750         1.270943
 C         0.360760         0.408115         0.873190
 C         0.715928         0.960837        -0.451639
 O         1.283200        -0.292433         0.027471
 C         0.790833         0.773020         2.237500
 H         0.936026         0.430990         4.803649
 H         1.262477        -1.964540         1.836968
 H         0.496000        -2.555026         3.437775
 H        -1.678124        -1.420014         2.975917
 H        -1.122112        -1.157615         0.516835
 H        -2.088528        -0.000570         1.378328
 H         0.030569         0.876103        -1.336974
 H         1.305540         1.811765        -0.432193
 H         1.896523         0.884500         2.340735
 H         0.348289         1.655656         2.553803
