19
Iteration:  4810charge 0 multiplicity 1
 O         0.404754        -0.050210         4.530751
 C         0.266630        -0.322989         3.194690
 C         0.519353        -1.764015         2.689863
 C        -0.765843        -1.144206         2.465703
 C        -0.929052        -0.480776         1.162535
 C         0.300999         0.350574         0.886160
 C         0.612531         0.970217        -0.355899
 O         1.298435        -0.265703         0.060394
 C         0.801542         0.773297         2.343795
 H        -0.208359        -0.553883         5.107526
 H         1.340068        -1.975951         1.957402
 H         0.406574        -2.437424         3.572833
 H        -1.564721        -1.564021         3.103524
 H        -0.978962        -1.153346         0.387008
 H        -1.790372         0.187385         1.004328
 H        -0.039668         0.871596        -1.256285
 H         1.251448         1.802543        -0.290665
 H         1.902305         1.038711         2.409675
 H         0.271702         1.681405         2.629758
