19
Iteration:  2089charge 0 multiplicity 1
 O         0.348715        -0.035276         4.589129
 C         0.307508        -0.414654         3.236937
 C         0.127695        -1.873256         2.873955
 C        -0.958415        -0.820510         2.456950
 C        -0.971693        -0.377385         1.031262
 C         0.415701         0.259580         0.870220
 C         0.895747         1.116822        -0.168542
 O         1.297154        -0.311395        -0.122178
 C         1.009426         0.494315         2.221341
 H         0.941714        -0.597660         5.096349
 H         0.688921        -2.379760         2.048852
 H        -0.138811        -2.435986         3.791740
 H        -1.943737        -1.012085         2.969738
 H        -1.281635        -1.085959         0.257665
 H        -1.773999         0.324321         0.909037
 H         0.190756         1.543616        -0.908284
 H         1.651519         1.976556         0.023752
 H         2.110667         0.398390         2.319444
 H         0.818435         1.620318         2.476239
