19
Iteration:  4593
 O         0.217918         0.115668         4.496005
 C         0.332196        -0.456939         3.175667
 C         0.549050        -1.933781         2.968856
 C        -0.861860        -1.021931         2.509072
 C        -0.976425        -0.434314         1.039037
 C         0.387131         0.274183         0.883643
 C         0.615888         1.158479        -0.189912
 O         1.230567        -0.253089        -0.147266
 C         1.022990         0.551125         2.258287
 H         0.521073        -0.583592         5.139504
 H         1.164550        -2.223320         2.068356
 H         0.370768        -2.495092         3.884499
 H        -1.760328        -1.335556         3.038100
 H        -1.146120        -1.076691         0.167874
 H        -1.745623         0.409386         1.077827
 H        -0.242937         1.372111        -0.874616
 H         1.371422         1.869200        -0.055092
 H         2.142455         0.464987         2.273278
 H         0.826087         1.585079         2.681139
