19
Iteration:  2549
 O         0.173204        -0.154732         4.582122
 C         0.333373        -0.409298         3.163810
 C         0.387090        -1.739434         2.699516
 C        -0.864238        -0.984679         2.426136
 C        -1.060959        -0.084231         1.151053
 C         0.367125         0.395960         0.940584
 C         1.041490         0.906254        -0.351672
 O         1.099821        -0.490346         0.007147
 C         1.011579         0.669647         2.356206
 H         1.021969        -0.412153         4.924978
 H         0.984961        -2.149432         1.900381
 H         0.287338        -2.524589         3.524302
 H        -1.560488        -1.103266         3.177682
 H        -1.256214        -0.652351         0.222676
 H        -1.936217         0.615509         1.401320
 H         0.471260         1.115745        -1.250933
 H         1.787182         1.597257        -0.102524
 H         2.132567         0.494515         2.316425
 H         0.608524         1.706566         2.555038
