19
Iteration:  3275
 O         0.309505        -0.220246         4.669294
 C         0.305388        -0.368043         3.239087
 C         0.259321        -1.825703         2.736350
 C        -0.884334        -0.863536         2.530756
 C        -1.019181        -0.190872         1.143377
 C         0.346586         0.325749         0.902545
 C         0.989683         0.935071        -0.388324
 O         1.205003        -0.410730        -0.167635
 C         1.031930         0.688327         2.353382
 H        -0.521611         0.286529         4.908180
 H         0.872023        -2.128369         1.837775
 H         0.275254        -2.589555         3.574662
 H        -1.822853        -1.116769         2.937412
 H        -1.316980        -0.847121         0.358629
 H        -1.759282         0.582131         1.315327
 H         0.385193         1.174368        -1.324949
 H         1.905591         1.583737        -0.146279
 H         2.078253         0.423771         2.455274
 H         0.829372         1.729471         2.576530
