19
Iteration:  3327charge 0 multiplicity 1
 O         0.509569        -0.057731         4.552476
 C         0.282016        -0.461755         3.156286
 C         0.168369        -1.777802         2.564263
 C        -1.067098        -0.913236         2.453707
 C        -1.030845        -0.137763         1.132171
 C         0.296459         0.465699         0.990497
 C         0.918607         0.829687        -0.307585
 O         1.423914        -0.469352         0.117774
 C         0.901939         0.667749         2.345452
 H         0.731456        -0.897904         5.018126
 H         0.806411        -2.118434         1.694099
 H        -0.158366        -2.600836         3.272323
 H        -1.893101        -1.102540         3.035895
 H        -1.367038        -0.646637         0.242095
 H        -1.773130         0.778522         1.121524
 H         0.152637         0.685742        -1.013288
 H         1.740610         1.547367        -0.624156
 H         2.001736         0.503623         2.454195
 H         0.705550         1.638741         2.788933
