19
Iteration:  2225
 O         0.289098        -0.131901         4.658745
 C         0.288137        -0.389668         3.226072
 C         0.333499        -1.793353         2.742513
 C        -0.923920        -0.853542         2.410241
 C        -1.051994        -0.149359         1.072975
 C         0.361071         0.351041         0.933365
 C         0.928312         0.887215        -0.248924
 O         1.183821        -0.444902        -0.061686
 C         1.030889         0.637734         2.267287
 H         0.915474        -0.841822         4.883531
 H         1.074828        -1.973580         1.983104
 H         0.123708        -2.574055         3.444465
 H        -1.869918        -1.272870         2.857383
 H        -1.380473        -0.835521         0.256391
 H        -1.633787         0.826468         1.220001
 H         0.385294         1.167304        -1.155353
 H         1.805196         1.506409        -0.184122
 H         2.154394         0.595008         2.311369
 H         0.765863         1.771112         2.715682
