19
Iteration:  3568charge 0 multiplicity 1
 O         0.187903         0.133462         4.461605
 C         0.324650        -0.445213         3.248405
 C         0.121903        -1.876374         3.042869
 C        -0.945854        -0.936222         2.504921
 C        -0.906726        -0.481926         1.046741
 C         0.483660         0.355755         0.935439
 C         0.794225         1.171192        -0.219309
 O         1.169345        -0.194994        -0.224395
 C         1.282153         0.324194         2.258908
 H         0.620793        -0.535882         5.080706
 H         0.783254        -2.281830         2.279826
 H        -0.087229        -2.413674         3.937926
 H        -1.949297        -1.350816         2.815311
 H        -0.857755        -1.255947         0.319135
 H        -1.854878         0.128148         0.875370
 H        -0.060236         1.599772        -0.745554
 H         1.627010         1.822161        -0.173401
 H         2.334597        -0.023897         2.132755
 H         1.379970         1.396726         2.583812
