19
Iteration:   939
 O         0.242158        -0.065778         4.569475
 C         0.336232        -0.393732         3.182740
 C         0.072962        -1.842559         2.913234
 C        -1.017265        -0.831096         2.586584
 C        -0.937456        -0.353826         1.101445
 C         0.485589         0.243761         0.837673
 C         0.911521         1.165807        -0.221876
 O         1.263031        -0.274849        -0.161890
 C         1.110199         0.422301         2.192997
 H         1.015650        -0.179232         5.160450
 H         0.601799        -2.257671         2.055935
 H        -0.107888        -2.472107         3.712535
 H        -1.979666        -0.908905         3.260864
 H        -0.969753        -1.247796         0.454456
 H        -1.865877         0.223421         0.997695
 H         0.293050         1.381382        -1.158545
 H         1.723863         1.916607        -0.090625
 H         2.031270         0.017540         2.161217
 H         1.136100         1.475812         2.530706
