19
Iteration:  2101
 O         0.307297        -0.124454         4.620297
 C         0.365974        -0.381367         3.191630
 C         0.122348        -1.743727         2.803087
 C        -0.979853        -0.817209         2.498946
 C        -0.975869        -0.351277         1.048738
 C         0.416913         0.213866         0.857664
 C         0.827929         1.138894        -0.211013
 O         1.303449        -0.362202        -0.105453
 C         1.052164         0.537265         2.278503
 H         0.830032        -0.871037         4.951358
 H         0.900157        -2.224909         2.135041
 H        -0.079222        -2.458309         3.658790
 H        -1.918715        -0.702583         3.058197
 H        -0.968130        -1.278663         0.452600
 H        -1.649809         0.452815         0.885541
 H         0.353268         1.213593        -1.154721
 H         1.723002         1.732039         0.162370
 H         2.095335         0.652608         2.063977
 H         0.492086         1.537608         2.661368
