19
Iteration:   766charge 0 multiplicity 1
 O         0.235847        -0.300749         4.585740
 C         0.328543        -0.385415         3.195316
 C         0.208681        -1.780976         2.671487
 C        -0.918775        -0.734459         2.554709
 C        -0.992323        -0.237809         1.159578
 C         0.405866         0.416986         0.926246
 C         0.927044         0.862657        -0.390602
 O         1.272791        -0.463450         0.011969
 C         0.999747         0.759316         2.271155
 H         1.140442        -0.238580         5.029639
 H         0.752004        -2.037876         1.817836
 H         0.004663        -2.577638         3.416464
 H        -1.855157        -0.801971         3.219205
 H        -1.187704        -0.979713         0.436746
 H        -1.855667         0.576515         1.097162
 H         0.263689         1.008101        -1.237543
 H         1.665422         1.642806        -0.333809
 H         2.087866         0.420204         2.359487
 H         0.843960         1.826098         2.703290
