19
Iteration:  4447charge 0 multiplicity 1
 O         0.307608        -0.160550         4.539734
 C         0.434755        -0.283804         3.134858
 C         0.388741        -1.774874         2.678181
 C        -0.901032        -1.072510         2.428933
 C        -1.067309        -0.331523         1.197113
 C         0.373459         0.293849         0.924770
 C         0.789697         0.965597        -0.328504
 O         1.239618        -0.405521         0.096522
 C         0.864299         0.839018         2.288836
 H         1.207774        -0.271365         4.895208
 H         1.113444        -2.061439         1.925335
 H         0.246328        -2.306533         3.657355
 H        -1.656232        -1.417234         3.109405
 H        -1.248265        -0.882503         0.297701
 H        -1.876312         0.487811         1.328313
 H         0.207966         0.917748        -1.157009
 H         1.592196         1.728937        -0.391834
 H         2.004679         0.800289         2.283673
 H         0.563109         1.849636         2.707545
