19
Iteration:   908charge 0 multiplicity 1
 O         0.432220        -0.029624         4.563668
 C         0.345796        -0.478276         3.210665
 C        -0.080354        -1.853314         2.868346
 C        -1.069643        -0.813181         2.454639
 C        -0.943313        -0.327285         0.992283
 C         0.504474         0.281101         0.942067
 C         0.728226         1.033223        -0.263783
 O         1.400458        -0.234905        -0.061263
 C         1.092011         0.474503         2.310283
 H         1.360392         0.210759         4.800413
 H         0.528687        -2.329013         2.051125
 H        -0.351809        -2.639380         3.515437
 H        -2.027301        -0.903934         3.064971
 H        -0.974586        -1.101630         0.302671
 H        -1.831027         0.351674         0.849346
 H         0.011984         0.809158        -1.034425
 H         1.397956         1.826583        -0.274166
 H         2.171883         0.233041         2.300574
 H         0.976762         1.402597         2.936622
