19
Iteration:  2668charge 0 multiplicity 1
 O         0.350805         0.160313         4.538459
 C         0.260978        -0.442388         3.223798
 C         0.002036        -1.975284         2.988988
 C        -1.003714        -0.893848         2.501607
 C        -0.860364        -0.440825         1.092500
 C         0.559032         0.222137         0.896545
 C         0.807049         1.202209        -0.228972
 O         1.297000        -0.136481        -0.244146
 C         1.104951         0.314803         2.234260
 H         0.539320        -0.536565         5.228105
 H         0.686492        -2.490719         2.258072
 H        -0.210020        -2.728528         3.791149
 H        -1.968054        -0.913926         2.770317
 H        -1.143627        -1.286159         0.451344
 H        -1.620332         0.376767         0.943026
 H        -0.035440         1.497273        -0.839770
 H         1.392594         2.027958        -0.043196
 H         2.132705        -0.034337         2.318557
 H         0.935173         1.302730         2.623705
