19
Iteration:  2350
 O         0.127705         0.129660         4.488647
 C         0.315018        -0.455833         3.225538
 C         0.204028        -1.981950         2.934750
 C        -0.896489        -0.896646         2.511092
 C        -0.954516        -0.277646         1.134463
 C         0.453846         0.238631         0.909931
 C         0.850495         1.198319        -0.156178
 O         1.242038        -0.269089        -0.232371
 C         1.161438         0.301679         2.217066
 H         0.870797        -0.159134         5.092590
 H         0.587340        -2.425690         2.014107
 H        -0.186775        -2.651656         3.720584
 H        -1.802449        -0.876526         3.097071
 H        -1.187701        -0.882133         0.269072
 H        -1.801350         0.402591         1.159784
 H         0.147563         1.575208        -0.852251
 H         1.743293         1.814223        -0.006143
 H         2.238083         0.008643         2.086439
 H         1.369709         1.335219         2.714277
