19
Iteration:  4535charge 0 multiplicity 1
 O         0.235332        -0.166344         4.643940
 C         0.409398        -0.416301         3.212034
 C         0.388096        -1.765922         2.852842
 C        -0.810741        -0.934829         2.542995
 C        -0.972340        -0.449242         1.141069
 C         0.334006         0.313762         0.873769
 C         0.692986         1.006005        -0.394796
 O         1.258569        -0.213449        -0.115362
 C         1.002575         0.596703         2.277374
 H         0.103723         0.785242         4.694301
 H         1.112142        -1.973706         2.038404
 H         0.368357        -2.659772         3.503905
 H        -1.668730        -1.181875         3.177131
 H        -1.114433        -1.022250         0.268987
 H        -1.820023         0.318394         1.064246
 H        -0.046956         1.118899        -1.119983
 H         1.447916         1.779044        -0.383168
 H         2.116018         0.604910         2.320265
 H         0.580230         1.522558         2.642833
