19
Iteration:  1792
 O         0.290142        -0.206750         4.665082
 C         0.385253        -0.402047         3.220598
 C         0.118709        -1.765618         2.697611
 C        -0.946179        -0.731715         2.548859
 C        -0.987799        -0.291517         1.085239
 C         0.405174         0.327521         0.921674
 C         0.870482         0.903872        -0.366954
 O         1.400303        -0.347074        -0.046093
 C         0.948440         0.653799         2.298640
 H         0.792834        -0.949122         5.022855
 H         0.696606        -2.090373         1.829705
 H         0.187462        -2.537663         3.409848
 H        -1.957669        -0.983819         2.981640
 H        -1.184968        -1.003212         0.215159
 H        -1.890847         0.585284         0.981667
 H         0.097178         0.911559        -1.185222
 H         1.507655         1.721376        -0.219716
 H         2.055151         0.659824         2.259333
 H         0.632835         1.639490         2.663588
