19
Iteration:   198
 O         0.395269        -0.003053         4.528479
 C         0.304503        -0.410807         3.188887
 C         0.060127        -1.836171         2.713640
 C        -1.017203        -0.823319         2.461136
 C        -1.047868        -0.224127         1.136213
 C         0.437371         0.222856         0.938374
 C         0.740651         0.974346        -0.274167
 O         1.502385        -0.342228         0.042496
 C         1.019588         0.516478         2.264651
 H         1.038719        -0.525334         5.016355
 H         0.830872        -2.229262         2.015029
 H        -0.172534        -2.569088         3.591392
 H        -1.921566        -1.032259         3.041876
 H        -1.385534        -0.960269         0.317306
 H        -1.675468         0.645264         0.941721
 H         0.149576         0.828440        -1.141846
 H         1.382124         1.910480        -0.132222
 H         2.096678         0.378626         2.157993
 H         0.842274         1.473848         2.638542
