19
Iteration:  3548charge 0 multiplicity 1
 O         0.204249         0.142492         4.554739
 C         0.332155        -0.467553         3.219565
 C         0.052171        -2.025796         2.986296
 C        -0.916232        -0.899614         2.525781
 C        -0.837590        -0.439896         1.062352
 C         0.494677         0.251408         0.876020
 C         0.675567         1.189343        -0.238413
 O         1.317237        -0.137091        -0.215701
 C         1.145040         0.315564         2.238955
 H         1.096678         0.339065         4.922338
 H         0.566274        -2.619479         2.267052
 H        -0.293861        -2.521893         3.903573
 H        -1.728723        -0.604692         3.266433
 H        -0.994028        -1.276574         0.386511
 H        -1.676660         0.344769         0.876224
 H        -0.012556         1.363638        -1.097529
 H         1.359151         1.905676        -0.055045
 H         2.178364        -0.086819         2.251572
 H         1.315794         1.418235         2.525069
