19
Iteration:  4350charge 0 multiplicity 1
 O         0.304088        -0.010500         4.602984
 C         0.315236        -0.417424         3.310898
 C         0.329552        -1.998628         2.806319
 C        -0.828848        -1.019318         2.520874
 C        -0.946768        -0.434669         1.105266
 C         0.332150         0.369989         0.893763
 C         0.786685         1.051342        -0.329642
 O         1.240090        -0.245970        -0.117162
 C         0.908996         0.660238         2.230273
 H         1.026874         0.576675         4.821364
 H         1.048562        -2.161211         1.938338
 H         0.126744        -2.618750         3.671675
 H        -1.714023        -1.113416         3.154532
 H        -1.149560        -1.133585         0.380009
 H        -1.864166         0.234687         1.146664
 H         0.119830         1.219624        -1.122631
 H         1.578604         1.830310        -0.115496
 H         2.016684         0.414322         2.070885
 H         0.842021         1.737340         2.553403
