19
Iteration:  2266charge 0 multiplicity 1
 O         0.292911        -0.044791         4.550356
 C         0.361708        -0.446527         3.201096
 C         0.034968        -1.964843         2.740359
 C        -0.941774        -0.805936         2.523191
 C        -0.990743        -0.256570         1.089942
 C         0.432501         0.351805         0.970160
 C         0.734355         0.953026        -0.332970
 O         1.444737        -0.263283        -0.085015
 C         1.096436         0.564187         2.351030
 H         0.746003        -0.593401         5.175781
 H         0.768753        -2.504426         2.076435
 H        -0.133795        -2.623679         3.626927
 H        -1.791226        -0.714858         3.271724
 H        -1.126879        -0.943441         0.227449
 H        -1.702390         0.516591         1.204959
 H        -0.081038         0.717028        -1.082235
 H         1.359161         1.906161        -0.533916
 H         2.069168         0.390422         2.072989
 H         0.873186         1.466802         2.723475
