19
Iteration:  2865charge 0 multiplicity 1
 O         0.114501        -0.039019         4.608348
 C         0.363062        -0.439089         3.288951
 C         0.216646        -1.869791         2.879493
 C        -0.893458        -0.874883         2.548965
 C        -0.991383        -0.364147         1.166186
 C         0.391411         0.354533         0.888301
 C         0.853562         1.145827        -0.333825
 O         1.316146        -0.296048        -0.237419
 C         1.113558         0.463676         2.242963
 H         0.691663        -0.556858         5.209677
 H         0.808343        -2.211756         2.023263
 H         0.037990        -2.636594         3.685596
 H        -1.789840        -0.883449         3.277389
 H        -1.169181        -1.180919         0.496703
 H        -1.831845         0.272323         1.014189
 H         0.185648         1.306511        -1.311844
 H         1.761748         1.836064        -0.361157
 H         2.186032         0.339327         2.142259
 H         1.089508         1.510958         2.439052
