19
Iteration:  2928
 O         0.220090        -0.090369         4.629170
 C         0.368636        -0.423893         3.171318
 C         0.324245        -1.884342         2.649057
 C        -0.828333        -0.957428         2.428293
 C        -1.030090        -0.140762         1.154246
 C         0.402072         0.438252         0.961947
 C         0.926997         0.893555        -0.339970
 O         1.200652        -0.468996        -0.007594
 C         0.930352         0.758249         2.361679
 H         0.951958        -0.378748         5.170259
 H         0.838252        -2.115040         1.681261
 H         0.092505        -2.854932         3.223816
 H        -1.810840        -1.240573         2.930904
 H        -1.450703        -0.644570         0.208292
 H        -1.692932         0.703549         1.473088
 H         0.281009         0.825705        -1.212428
 H         1.935531         1.384757        -0.300438
 H         2.033925         0.692876         2.384231
 H         0.466202         1.795347         2.586379
