19
Iteration:  4564
 O         0.146409        -0.009889         4.616608
 C         0.307378        -0.401199         3.251113
 C         0.428410        -1.924470         2.809286
 C        -0.787094        -1.055171         2.547425
 C        -0.938603        -0.442723         1.201451
 C         0.402735         0.314888         0.856904
 C         0.651481         1.097592        -0.315229
 O         1.232520        -0.227959        -0.159619
 C         1.063146         0.613795         2.236209
 H         0.853061         0.642975         4.825620
 H         1.120506        -2.187273         2.046449
 H         0.097262        -2.566511         3.624134
 H        -1.662660        -1.577015         2.917608
 H        -1.204550        -1.092426         0.287431
 H        -1.671417         0.317554         1.248046
 H        -0.217695         1.332161        -1.002800
 H         1.500219         1.882432        -0.371890
 H         2.113826         0.362323         2.244921
 H         0.980000         1.681241         2.548153
