19
Iteration:  1196charge 0 multiplicity 1
 O         0.141221        -0.076145         4.541134
 C         0.409975        -0.410117         3.120003
 C         0.181398        -1.918715         2.762479
 C        -0.875619        -0.821468         2.518156
 C        -1.005712        -0.148151         1.166538
 C         0.406866         0.270050         0.900974
 C         0.935598         1.019982        -0.195439
 O         1.203097        -0.437229        -0.066496
 C         1.083086         0.557655         2.264514
 H         1.001498        -0.010762         5.027084
 H         0.855507        -2.227769         1.946688
 H         0.125572        -2.597064         3.576219
 H        -1.790504        -0.949633         3.111712
 H        -1.324682        -0.810005         0.321404
 H        -1.577935         0.821135         1.082283
 H         0.205888         1.244081        -1.045063
 H         1.737672         1.764445        -0.122033
 H         2.201072         0.305207         2.039808
 H         0.926875         1.500158         2.744446
