19
Iteration:  2970
 O         0.382994        -0.311347         4.558905
 C         0.248010        -0.308124         3.173123
 C         0.226997        -1.713484         2.593103
 C        -0.972176        -0.824634         2.477748
 C        -1.089834        -0.251263         1.091507
 C         0.350191         0.341613         0.927767
 C         0.878160         0.892133        -0.294261
 O         1.375856        -0.513501         0.149675
 C         0.955057         0.835830         2.304617
 H         1.357181        -0.322550         4.732157
 H         0.818523        -2.054427         1.713312
 H         0.286294        -2.479578         3.446413
 H        -1.874455        -0.909716         3.140126
 H        -1.215772        -1.054394         0.273980
 H        -1.760544         0.660924         1.144876
 H         0.155586         1.026743        -1.054365
 H         1.725304         1.589883        -0.152335
 H         2.030744         0.625783         2.113023
 H         0.683099         1.862730         2.753217
