19
Iteration:  3679
 O         0.339892        -0.240627         4.680962
 C         0.249856        -0.335153         3.164888
 C         0.322737        -1.741166         2.661988
 C        -0.963432        -0.861693         2.537009
 C        -0.957752        -0.303873         1.171649
 C         0.396303         0.359963         0.892307
 C         0.884522         0.920192        -0.407399
 O         1.311262        -0.416462         0.003025
 C         0.858048         0.720207         2.304829
 H         1.260819        -0.031151         4.793388
 H         0.949337        -2.018235         1.845812
 H         0.202215        -2.523146         3.372331
 H        -1.826018        -0.987292         3.149644
 H        -1.153325        -1.070461         0.483670
 H        -1.883778         0.319641         1.136865
 H         0.258112         0.935023        -1.315263
 H         1.558951         1.708945        -0.476482
 H         1.951649         0.861968         2.280314
 H         0.287216         1.632426         2.614844
