19
Iteration:   704charge 0 multiplicity 1
 O         0.397162         0.018407         4.516026
 C         0.345685        -0.489458         3.154986
 C         0.077178        -1.922531         2.906802
 C        -1.031092        -0.916550         2.476445
 C        -1.076365        -0.207858         1.158765
 C         0.462874         0.283103         0.854558
 C         0.977418         1.068506        -0.318572
 O         1.362201        -0.309475        -0.057944
 C         0.962928         0.542606         2.261193
 H         0.472412        -0.726918         5.195476
 H         0.595247        -2.512035         2.111727
 H        -0.181115        -2.666445         3.746537
 H        -1.871741        -0.851810         3.238439
 H        -1.408743        -0.795676         0.255714
 H        -1.689978         0.632835         1.280678
 H         0.207835         1.110217        -1.133112
 H         1.772357         1.739295        -0.068459
 H         2.042399         0.315688         2.383425
 H         0.802736         1.546841         2.447866
