19
Iteration:  4519
 O         0.399959        -0.167224         4.552828
 C         0.265173        -0.345475         3.176757
 C         0.429278        -1.828302         2.820099
 C        -0.895735        -1.008733         2.505622
 C        -0.963048        -0.370335         1.104128
 C         0.438658         0.309086         0.914412
 C         0.672327         1.040615        -0.280316
 O         1.260037        -0.316611        -0.060315
 C         0.946151         0.714282         2.303285
 H        -0.220431         0.487811         4.927187
 H         1.040748        -2.227456         2.004746
 H         0.217078        -2.263908         3.758042
 H        -1.861200        -1.271262         2.970926
 H        -1.131135        -1.310233         0.467239
 H        -1.786989         0.292533         0.976668
 H        -0.102490         0.941255        -1.142060
 H         1.320481         1.937667        -0.397731
 H         2.030042         0.655259         2.251551
 H         0.737066         1.783224         2.501636
