19
Iteration:   337charge 0 multiplicity 1
 O         0.105417        -0.042166         4.577035
 C         0.395841        -0.364788         3.208689
 C         0.166392        -1.887797         2.906096
 C        -0.898451        -0.924491         2.506677
 C        -0.890030        -0.322299         1.082884
 C         0.473998         0.293804         0.952030
 C         0.926179         1.125395        -0.315935
 O         1.104017        -0.377433        -0.242183
 C         1.167400         0.496390         2.325429
 H         0.834045         0.216532         5.135295
 H         0.797517        -2.336729         2.148966
 H        -0.080292        -2.483653         3.818891
 H        -1.791649        -0.808914         3.107779
 H        -1.201029        -0.986972         0.344208
 H        -1.683982         0.417918         0.913719
 H         0.030058         1.476024        -0.933626
 H         1.801477         1.739492        -0.077464
 H         2.251837         0.278409         2.235649
 H         1.092434         1.624268         2.675050
