19
Iteration:  1064charge 0 multiplicity 1
 O         0.451867        -0.279223         4.631337
 C         0.206719        -0.312661         3.259026
 C         0.112426        -1.768546         2.727818
 C        -1.050582        -0.792007         2.453572
 C        -0.952581        -0.221395         1.053276
 C         0.468696         0.297338         1.012777
 C         0.985196         0.929346        -0.316494
 O         1.266751        -0.447442        -0.100456
 C         0.918000         0.654941         2.303433
 H         1.413146        -0.089714         4.817159
 H         0.879337        -2.134248         1.955618
 H        -0.027220        -2.480244         3.627033
 H        -2.033769        -0.842990         2.951311
 H        -1.191699        -0.959593         0.283798
 H        -1.730169         0.590906         0.907740
 H         0.211394         1.108541        -1.058275
 H         1.664198         1.824925        -0.150235
 H         2.046672         0.902426         2.534749
 H         0.522716         1.672024         2.443004
