19
Iteration:  1150charge 0 multiplicity 1
 O         0.180296        -0.156308         4.690499
 C         0.266472        -0.406603         3.302871
 C         0.366851        -1.765707         2.687311
 C        -0.864112        -0.849908         2.412195
 C        -0.998113        -0.082583         1.131663
 C         0.503959         0.444733         0.896605
 C         0.926369         0.870666        -0.398928
 O         1.129986        -0.521087        -0.072987
 C         1.000802         0.601647         2.384899
 H         0.867298        -0.598668         5.181402
 H         1.091101        -1.966041         1.747560
 H         0.005032        -2.744181         3.199924
 H        -1.862940        -1.178029         2.829558
 H        -1.420714        -0.466105         0.213434
 H        -1.715261         0.772395         1.412934
 H         0.225958         1.210119        -1.192720
 H         1.962778         1.391227        -0.511908
 H         2.103306         0.464970         2.296182
 H         0.850632         1.623640         2.675459
