19
Iteration:   210
 O         0.420984        -0.085371         4.587305
 C         0.239815        -0.396903         3.233106
 C         0.107216        -1.785092         2.815829
 C        -1.053366        -0.788699         2.543182
 C        -1.004619        -0.313424         1.044032
 C         0.431408         0.235945         0.869475
 C         0.884442         0.907608        -0.363068
 O         1.406735        -0.248934        -0.031639
 C         0.999228         0.565837         2.311921
 H         0.931998        -0.844973         4.994992
 H         0.647599        -2.175934         1.897309
 H        -0.158147        -2.571858         3.631595
 H        -1.996357        -0.936803         3.033042
 H        -1.358035        -1.096621         0.316578
 H        -1.605921         0.581175         1.063735
 H         0.196103         0.948878        -1.162758
 H         1.425644         1.947475        -0.348142
 H         2.061634         0.268729         2.388522
 H         0.876247         1.554469         2.567507
