19
Iteration:  3919
 O         0.281728         0.154288         4.549741
 C         0.347822        -0.476035         3.219843
 C         0.229105        -1.909122         2.988290
 C        -0.903964        -1.065196         2.433644
 C        -0.795696        -0.377405         1.066409
 C         0.478064         0.288547         0.963933
 C         0.606032         1.139451        -0.233300
 O         1.168243        -0.157884        -0.239811
 C         1.145368         0.477604         2.267990
 H        -0.013840        -0.596135         5.067408
 H         0.863613        -2.396083         2.324490
 H         0.093590        -2.565289         3.870473
 H        -1.864853        -1.293276         3.014486
 H        -0.868381        -1.250611         0.425450
 H        -1.688496         0.142849         0.687518
 H        -0.335807         1.248897        -0.800671
 H         1.459503         1.876546        -0.413185
 H         2.098179         0.001176         2.388071
 H         1.284285         1.396980         2.712172
