19
Iteration:   308charge 0 multiplicity 1
 O         0.134095         0.100046         4.516945
 C         0.320123        -0.469199         3.266987
 C         0.298932        -1.951119         2.881149
 C        -0.971465        -0.994671         2.452100
 C        -1.016155        -0.128003         1.162502
 C         0.486623         0.309762         0.899312
 C         0.834781         1.064898        -0.314208
 O         1.247784        -0.328762        -0.110674
 C         1.165630         0.325052         2.291726
 H         0.776484         0.767010         4.854214
 H         1.125526        -2.231062         2.119791
 H        -0.115434        -2.729080         3.558396
 H        -1.887375        -1.213666         2.977561
 H        -1.363902        -0.765816         0.231194
 H        -1.539835         0.865468         1.268673
 H         0.029370         1.249248        -0.927041
 H         1.540627         1.966746        -0.311449
 H         2.206984        -0.026215         2.086061
 H         1.196354         1.315928         2.690831
