19
Iteration:   912charge 0 multiplicity 1
 O         0.427596        -0.038669         4.531958
 C         0.332867        -0.452927         3.199582
 C        -0.059961        -1.857761         2.868761
 C        -1.083676        -0.794549         2.486907
 C        -0.941574        -0.362766         0.970368
 C         0.465015         0.319076         0.955040
 C         0.756205         1.020696        -0.254156
 O         1.393790        -0.251100        -0.065002
 C         1.121400         0.466671         2.329518
 H         1.299895         0.202443         4.833257
 H         0.561416        -2.322411         2.054334
 H        -0.385390        -2.687265         3.598721
 H        -1.953377        -0.885234         3.031311
 H        -1.024779        -1.187734         0.156362
 H        -1.789525         0.340882         0.925202
 H        -0.046345         0.922757        -0.999773
 H         1.340710         2.014454        -0.178015
 H         2.278639         0.149733         2.328620
 H         1.005066         1.454679         2.830508
