19
Iteration:  1054
 O         0.345016        -0.240804         4.612305
 C         0.267186        -0.401283         3.178748
 C         0.142925        -1.770385         2.768311
 C        -1.065153        -0.763272         2.515076
 C        -0.954963        -0.239418         1.135542
 C         0.488714         0.294442         0.887200
 C         0.906733         0.952773        -0.251391
 O         1.284139        -0.439762        -0.133770
 C         0.993858         0.714499         2.333902
 H         1.302513        -0.079970         4.676831
 H         0.623474        -2.235254         1.881017
 H         0.081424        -2.374299         3.682018
 H        -2.033455        -1.157646         2.857408
 H        -1.072851        -0.926166         0.264342
 H        -1.688315         0.598700         1.048968
 H         0.264185         1.271762        -1.045068
 H         1.851072         1.505442        -0.245600
 H         2.137643         0.526012         2.575195
 H         0.619548         1.727666         2.566143
