19
Iteration:  3439
 O         0.200784         0.039939         4.491007
 C         0.300567        -0.430739         3.203071
 C         0.299083        -1.816486         2.907895
 C        -0.859656        -0.906250         2.429525
 C        -1.010071        -0.136207         1.156591
 C         0.423242         0.187074         0.882705
 C         0.838502         1.014059        -0.247033
 O         1.276918        -0.309216        -0.195552
 C         1.081756         0.384164         2.329514
 H         0.289814        -0.670670         5.112940
 H         0.999751        -2.338857         2.241317
 H         0.087700        -2.398395         3.759147
 H        -1.802140        -1.175546         3.035482
 H        -1.671708        -0.616488         0.447768
 H        -1.472650         0.874702         1.448730
 H        -0.007231         1.192416        -0.932117
 H         1.555952         1.748927        -0.076377
 H         2.138495         0.165691         2.398141
 H         0.866545         1.405548         2.601731
