19
Iteration:  1452
 O         0.453876        -0.055844         4.450083
 C         0.366120        -0.445914         3.124514
 C         0.062993        -1.886447         2.671490
 C        -1.008794        -0.803333         2.554984
 C        -0.949900        -0.260993         1.116383
 C         0.342967         0.360032         0.962744
 C         0.913243         0.919769        -0.263739
 O         1.384746        -0.375351         0.102470
 C         0.953621         0.637031         2.297185
 H         0.198670        -0.873797         4.964427
 H         0.426922        -2.310685         1.689538
 H        -0.108645        -2.597564         3.492126
 H        -1.929158        -0.916940         3.093002
 H        -1.371230        -0.990075         0.299296
 H        -1.617679         0.642821         0.972351
 H         0.113667         1.057009        -1.019447
 H         1.712915         1.795232        -0.218894
 H         2.062526         0.774783         2.359851
 H         0.452601         1.501230         2.691296
