19
Iteration:  3971charge 0 multiplicity 1
 O         0.371162        -0.009002         4.556206
 C         0.279413        -0.415415         3.178224
 C         0.348805        -1.869382         2.902162
 C        -0.916719        -0.946106         2.536500
 C        -0.989022        -0.441241         1.157013
 C         0.305247         0.275385         0.891806
 C         0.710909         1.108939        -0.172619
 O         1.374152        -0.227436        -0.195359
 C         1.059522         0.533464         2.141351
 H        -0.500578         0.060975         4.916205
 H         0.886737        -2.262621         2.117953
 H         0.128600        -2.487948         3.728553
 H        -1.759678        -1.237065         3.224708
 H        -1.230130        -1.272048         0.352956
 H        -1.942087         0.222607         1.136044
 H         0.080829         1.369731        -1.032786
 H         1.405701         1.899776         0.024408
 H         2.138134         0.387951         2.295027
 H         0.809194         1.580169         2.567345
