19
Iteration:  3121
 O         0.331340         0.080685         4.481988
 C         0.302308        -0.478537         3.180026
 C         0.062370        -1.974362         2.985933
 C        -0.879132        -0.922256         2.517428
 C        -0.953219        -0.376311         1.092767
 C         0.400534         0.304412         0.870207
 C         0.717658         1.177027        -0.220462
 O         1.366038        -0.198088        -0.101293
 C         1.170171         0.390639         2.218368
 H        -0.125157        -0.557713         5.026815
 H         0.420828        -2.552380         2.063775
 H        -0.112129        -2.498260         3.976009
 H        -1.824123        -0.531501         2.988114
 H        -1.218021        -1.163184         0.400293
 H        -1.782341         0.272692         0.976988
 H         0.210465         1.364821        -1.196533
 H         1.496539         1.994415         0.079114
 H         2.230519         0.095916         2.085301
 H         1.212538         1.437117         2.498343
