19
Iteration:  1302charge 0 multiplicity 1
 O         0.202382         0.028344         4.493115
 C         0.356790        -0.462168         3.238657
 C         0.088449        -1.947770         2.897159
 C        -0.953737        -0.895489         2.517318
 C        -0.938604        -0.319012         1.094213
 C         0.448926         0.310843         0.908639
 C         0.870836         1.136843        -0.268442
 O         1.229059        -0.243213        -0.157223
 C         1.163584         0.393389         2.293513
 H         0.882515        -0.183355         5.196953
 H         0.862874        -2.430925         2.101160
 H        -0.174819        -2.528585         3.809277
 H        -1.867197        -0.846023         3.123614
 H        -1.105627        -1.090528         0.382702
 H        -1.670494         0.503451         0.919076
 H         0.042822         1.432601        -0.918156
 H         1.762403         1.783374        -0.345783
 H         2.172161         0.087621         2.310474
 H         1.257226         1.537187         2.591681
