19
Iteration:   499charge 0 multiplicity 1
 O         0.162781        -0.000301         4.531293
 C         0.326788        -0.477962         3.148243
 C         0.333966        -1.944442         2.718684
 C        -0.825317        -0.984813         2.464118
 C        -1.026473        -0.051280         1.173058
 C         0.418361         0.437678         0.995914
 C         0.890942         0.909744        -0.413427
 O         1.154129        -0.455298         0.078684
 C         1.055075         0.636983         2.288581
 H         0.960569        -0.412669         4.943088
 H         1.109505        -2.141452         1.954393
 H         0.089544        -2.622103         3.487519
 H        -1.627077        -1.209380         3.162340
 H        -1.253435        -0.441754         0.133911
 H        -1.817318         0.759267         1.357823
 H         0.248315         0.887505        -1.319227
 H         1.756094         1.441122        -0.267911
 H         2.112175         0.587966         2.242142
 H         0.767802         1.552212         2.771227
