19
Iteration:  4491
 O         0.538848        -0.027380         4.582476
 C         0.352260        -0.432986         3.258381
 C         0.339427        -1.773138         2.707223
 C        -0.939783        -1.019449         2.476113
 C        -1.025805        -0.426988         1.076431
 C         0.332519         0.330248         0.889965
 C         0.784968         0.978350        -0.331686
 O         1.313352        -0.280814         0.032619
 C         0.834807         0.694505         2.333940
 H        -0.178591        -0.267980         5.173378
 H         0.994901        -2.042594         1.875206
 H         0.172706        -2.643337         3.412159
 H        -1.889003        -1.353809         2.854225
 H        -1.357438        -1.188087         0.407482
 H        -1.881532         0.374878         0.993358
 H         0.150336         0.887223        -1.141722
 H         1.478509         1.830661        -0.356450
 H         1.910222         0.917849         2.118903
 H         0.347065         1.635763         2.628132
