19
Iteration:  4222charge 0 multiplicity 1
 O         0.260248         0.127486         4.463084
 C         0.317598        -0.452325         3.230491
 C         0.407936        -1.882280         2.924642
 C        -0.849487        -1.027917         2.599396
 C        -0.964632        -0.445423         1.165224
 C         0.372482         0.208524         0.815387
 C         0.685845         1.167883        -0.150479
 O         1.243764        -0.170453        -0.276304
 C         1.056043         0.439072         2.266343
 H        -0.649545        -0.107417         4.821915
 H         1.148220        -2.197635         2.209662
 H         0.472696        -2.467057         3.746166
 H        -1.637029        -1.234161         3.283667
 H        -1.074606        -1.308626         0.372848
 H        -1.761409         0.229853         0.983618
 H         0.059896         1.523882        -0.930075
 H         1.462578         1.919069         0.184429
 H         2.116228         0.227822         2.218059
 H         0.997497         1.442090         2.622519
