19
Iteration:  4359charge 0 multiplicity 1
 O         0.275929        -0.044306         4.577154
 C         0.351886        -0.421171         3.178913
 C         0.402783        -1.906702         2.824433
 C        -0.820673        -0.970288         2.498933
 C        -1.060583        -0.395354         1.107175
 C         0.350165         0.302149         0.936899
 C         0.791831         1.070257        -0.315856
 O         1.212189        -0.278008        -0.070298
 C         0.991924         0.606940         2.272856
 H         0.828165         0.652389         4.917077
 H         1.148575        -2.276591         2.054589
 H         0.231256        -2.585884         3.618262
 H        -1.783802        -1.188833         2.993141
 H        -1.261814        -1.146386         0.381895
 H        -1.910097         0.328995         1.272104
 H         0.231241         1.113822        -1.199360
 H         1.437389         1.909534        -0.278428
 H         2.123058         0.697771         2.236031
 H         0.562739         1.640972         2.579440
