19
Iteration:  1410
 O         0.418783        -0.129625         4.605303
 C         0.202867        -0.367377         3.264044
 C         0.095174        -1.761437         2.883162
 C        -1.067949        -0.888426         2.475427
 C        -0.919589        -0.280884         1.094649
 C         0.464349         0.326365         0.921156
 C         0.849003         0.995716        -0.348617
 O         1.400355        -0.278858        -0.127220
 C         0.995836         0.531771         2.276743
 H         0.543011        -0.995007         5.082520
 H         0.639557        -2.334516         2.067338
 H        -0.259200        -2.532791         3.588112
 H        -1.958680        -0.983191         3.013186
 H        -1.200978        -0.819092         0.143965
 H        -1.711478         0.539453         1.062226
 H         0.210147         0.953661        -1.189462
 H         1.650745         1.743961        -0.375866
 H         1.975989         0.111668         2.193535
 H         1.082376         1.613313         2.692700
