19
Iteration:  4761charge 0 multiplicity 1
 O         0.218473        -0.155421         4.630340
 C         0.340071        -0.357972         3.238456
 C         0.625192        -1.754493         2.680265
 C        -0.795390        -1.137963         2.512834
 C        -1.075097        -0.432797         1.282545
 C         0.370960         0.428930         0.892038
 C         0.753046         0.987169        -0.428093
 O         1.266492        -0.299106        -0.014103
 C         0.819912         0.751230         2.251576
 H         0.568344         0.710633         4.952477
 H         1.186598        -1.952165         1.764448
 H         0.609973        -2.499264         3.410288
 H        -1.703929        -1.584761         2.951290
 H        -1.023437        -1.060899         0.269874
 H        -2.091738        -0.072479         1.375061
 H        -0.034855         0.750237        -1.123291
 H         1.592618         1.806482        -0.593813
 H         1.882329         1.027766         2.129134
 H         0.297137         1.756270         2.581637
