19
Iteration:  2344charge 0 multiplicity 1
 O         0.161700         0.132595         4.541557
 C         0.314945        -0.437928         3.208990
 C         0.157949        -1.979364         2.924461
 C        -0.863156        -0.879476         2.485858
 C        -0.916745        -0.276900         1.079795
 C         0.470868         0.198257         0.869833
 C         0.875667         1.192413        -0.133268
 O         1.201029        -0.270188        -0.225587
 C         1.092749         0.300836         2.251161
 H         0.917229        -0.080359         5.127581
 H         0.802613        -2.328493         2.048183
 H        -0.049934        -2.747052         3.666836
 H        -1.770360        -0.792581         3.175495
 H        -1.186251        -1.079701         0.330208
 H        -1.833625         0.358698         1.122009
 H         0.114395         1.757276        -0.808126
 H         1.768328         1.853402         0.008280
 H         2.130462         0.013636         2.105843
 H         1.215367         1.260638         2.642132
