19
Iteration:  2966charge 0 multiplicity 1
 O         0.358273        -0.339403         4.548873
 C         0.292864        -0.289579         3.162763
 C         0.278677        -1.707885         2.632351
 C        -0.992029        -0.797776         2.492578
 C        -1.112680        -0.254432         1.084742
 C         0.347671         0.321057         0.926878
 C         0.892459         0.878744        -0.272485
 O         1.356404        -0.482987         0.152210
 C         0.939390         0.825390         2.274600
 H         1.303002        -0.299503         4.749333
 H         0.750087        -2.021202         1.719836
 H         0.295154        -2.430513         3.390051
 H        -1.823513        -0.931563         3.093569
 H        -1.251531        -0.922417         0.284841
 H        -1.808151         0.571227         1.204958
 H         0.315002         1.045357        -1.266562
 H         1.749070         1.540443        -0.258489
 H         2.004005         0.559809         2.222927
 H         0.778813         1.753662         2.757413
