19
Iteration:  2429
 O         0.248728        -0.103526         4.567307
 C         0.256904        -0.349102         3.202506
 C         0.161372        -1.831856         2.803825
 C        -1.022591        -0.803092         2.621508
 C        -0.925427        -0.360743         1.101415
 C         0.495410         0.209618         0.882258
 C         0.972803         1.096899        -0.205771
 O         1.201944        -0.315281        -0.182497
 C         1.081112         0.552911         2.233640
 H         1.001746        -0.514907         5.053404
 H         0.714103        -2.249756         1.850719
 H         0.154411        -2.522976         3.679550
 H        -2.072132        -1.037579         3.060944
 H        -1.076475        -1.120161         0.342110
 H        -1.570136         0.457007         0.901494
 H         0.188054         1.377153        -0.925251
 H         1.746498         1.787402         0.180429
 H         2.142075         0.216064         2.150970
 H         0.826996         1.558752         2.596745
