19
Iteration:  1434
 O         0.529745        -0.027547         4.578451
 C         0.269472        -0.491775         3.241452
 C         0.003158        -1.892572         2.730414
 C        -1.034942        -0.825538         2.426680
 C        -1.034984        -0.172633         1.079594
 C         0.494010         0.238829         0.892984
 C         0.824208         0.974906        -0.370598
 O         1.472036        -0.288459         0.058093
 C         0.939285         0.558811         2.309650
 H         0.478921        -0.751309         5.255842
 H         0.737961        -2.268603         1.976506
 H        -0.105168        -2.766249         3.455008
 H        -1.889997        -0.824272         3.079761
 H        -1.384593        -0.841589         0.321984
 H        -1.889256         0.556223         1.024954
 H         0.189000         0.753341        -1.218318
 H         1.363076         1.826069        -0.273194
 H         1.978323         0.570760         2.369421
 H         0.494483         1.549669         2.826107
