19
Iteration:  2448
 O         0.338373        -0.120221         4.564909
 C         0.342257        -0.353419         3.169379
 C         0.143834        -1.826016         2.824696
 C        -0.958087        -0.861177         2.475133
 C        -1.070730        -0.306037         1.084858
 C         0.322277         0.349385         0.886840
 C         0.974232         1.059882        -0.202323
 O         1.337848        -0.362297        -0.075557
 C         0.999758         0.534944         2.256868
 H         1.077975        -0.624651         5.015334
 H         0.718381        -2.203853         1.950745
 H        -0.149062        -2.480957         3.620125
 H        -1.807423        -0.778187         3.243668
 H        -1.239774        -1.168320         0.398811
 H        -2.033681         0.336658         0.979685
 H         0.480439         1.256289        -1.078748
 H         1.842407         1.633446         0.124341
 H         2.115671         0.377063         2.173024
 H         0.640173         1.626664         2.519782
