19
Iteration:   503
 O         0.161313        -0.027932         4.516563
 C         0.331861        -0.468188         3.160405
 C         0.328306        -1.946807         2.734404
 C        -0.839463        -0.997993         2.458703
 C        -1.028523        -0.037294         1.163384
 C         0.420992         0.433694         0.960211
 C         0.867746         0.919965        -0.401051
 O         1.171255        -0.447022         0.097204
 C         1.051233         0.633816         2.285614
 H         1.012598        -0.291027         4.923642
 H         1.028661        -2.245255         1.949721
 H         0.015213        -2.651343         3.572948
 H        -1.494186        -1.135443         3.361728
 H        -1.213728        -0.360920         0.186571
 H        -1.818628         0.670460         1.357055
 H         0.246815         0.867423        -1.302632
 H         1.907086         1.464093        -0.331760
 H         2.164544         0.633326         2.192820
 H         0.740080         1.622132         2.655933
