19
Iteration:  2182charge 0 multiplicity 1
 O         0.202157        -0.159908         4.492229
 C         0.355100        -0.387571         3.166743
 C         0.377879        -1.837253         2.591540
 C        -0.907963        -0.973073         2.488255
 C        -1.049653        -0.093788         1.226383
 C         0.374389         0.387380         0.964980
 C         1.053723         0.847319        -0.322347
 O         1.127694        -0.491950         0.073670
 C         0.973659         0.705424         2.346341
 H         1.056273         0.149155         4.895099
 H         0.819166        -1.949045         1.627246
 H         0.248865        -2.642716         3.254056
 H        -1.835316        -1.158154         3.096165
 H        -1.480444        -0.547988         0.280875
 H        -1.861002         0.732242         1.439283
 H         0.522013         1.245077        -1.176888
 H         1.807447         1.548464        -0.161201
 H         2.105910         0.838290         2.271993
 H         0.712669         1.840593         2.604957
