19
Iteration:  1884charge 0 multiplicity 1
 O         0.130932        -0.195671         4.551448
 C         0.258322        -0.350922         3.192618
 C         0.352096        -1.821113         2.715450
 C        -0.865697        -0.910009         2.474575
 C        -1.015636        -0.142879         1.186501
 C         0.413104         0.432165         0.927013
 C         0.908534         0.927869        -0.351787
 O         1.180613        -0.474952        -0.027718
 C         1.121518         0.669768         2.340672
 H         0.977252        -0.321023         5.075322
 H         0.945866        -2.119328         1.745682
 H         0.258323        -2.652931         3.465872
 H        -1.762734        -1.189212         3.080742
 H        -1.346569        -0.534123         0.178578
 H        -1.855767         0.637055         1.297537
 H         0.231593         0.950577        -1.184390
 H         1.877824         1.466320        -0.214642
 H         2.162051         0.498862         2.462415
 H         0.956627         1.753436         2.617989
