19
Iteration:  2461
 O         0.386512        -0.070252         4.586563
 C         0.319526        -0.479552         3.218719
 C         0.140184        -1.883903         2.771884
 C        -0.950376        -0.849136         2.509709
 C        -1.104571        -0.287852         1.020472
 C         0.361216         0.351051         0.867222
 C         1.007443         1.002174        -0.317553
 O         1.304749        -0.337129         0.053607
 C         0.959447         0.618934         2.271541
 H         1.098983        -0.595117         4.928067
 H         0.724085        -2.429170         1.920568
 H        -0.087179        -2.607933         3.595388
 H        -1.961459        -1.076856         3.038542
 H        -1.358418        -0.881854         0.134929
 H        -1.746936         0.599387         1.073959
 H         0.441436         1.164322        -1.223673
 H         1.585767         1.917839        -0.175203
 H         2.103393         0.603013         2.189603
 H         0.853000         1.587448         2.899182
