19
Iteration:  1442
 O         0.501540        -0.033975         4.502434
 C         0.339232        -0.513431         3.197181
 C         0.043562        -1.876566         2.720804
 C        -1.023070        -0.828873         2.484396
 C        -1.021035        -0.219887         1.094377
 C         0.445276         0.293254         0.941633
 C         0.823576         0.940047        -0.292119
 O         1.446323        -0.313199         0.078014
 C         0.892710         0.580647         2.310372
 H         0.387162        -0.692236         5.208937
 H         0.560919        -2.174009         1.752019
 H        -0.377449        -2.710776         3.294534
 H        -1.816103        -0.649768         3.137839
 H        -1.174063        -0.911564         0.172521
 H        -1.601057         0.749049         1.069652
 H         0.321420         0.824696        -1.239849
 H         1.575905         1.789566        -0.350285
 H         1.974344         0.676188         2.272618
 H         0.500353         1.574433         2.645192
