19
Iteration:  3711
 O         0.380292        -0.076227         4.559812
 C         0.339697        -0.398712         3.112979
 C         0.404186        -1.775676         2.619120
 C        -0.901012        -0.965942         2.412076
 C        -1.074699        -0.231866         1.161484
 C         0.269393         0.365276         0.940554
 C         0.910799         0.849910        -0.247740
 O         1.311300        -0.475884         0.127830
 C         0.825060         0.791670         2.261281
 H         0.692227        -0.958218         4.902801
 H         1.016558        -1.971449         1.764223
 H         0.241597        -2.489951         3.366395
 H        -1.660451        -0.998781         3.158709
 H        -1.444394        -0.686323         0.308606
 H        -1.781439         0.552254         1.431267
 H         0.286300         0.849512        -1.206571
 H         1.511865         1.724594        -0.097644
 H         1.897091         0.966890         2.191489
 H         0.404814         1.648227         2.788552
