19
Iteration:   883charge 0 multiplicity 1
 O         0.360766        -0.118970         4.623822
 C         0.262658        -0.394567         3.230378
 C         0.012246        -1.933964         2.850618
 C        -0.991814        -0.781063         2.592248
 C        -0.911192        -0.284986         1.083495
 C         0.506724         0.301434         0.841385
 C         0.828507         1.015168        -0.383081
 O         1.387554        -0.280424        -0.136412
 C         1.011463         0.532457         2.278450
 H         1.270660        -0.123422         4.906944
 H         0.518951        -2.426027         2.089197
 H        -0.202482        -2.632771         3.657574
 H        -1.963754        -0.905802         3.119690
 H        -1.330369        -0.927247         0.292117
 H        -1.596670         0.511489         1.214965
 H         0.038000         0.927693        -1.149376
 H         1.458664         1.929966        -0.242449
 H         2.011308         0.474405         2.449667
 H         0.712766         1.531413         2.662587
