19
Iteration:  1122charge 0 multiplicity 1
 O         0.245165        -0.151503         4.442791
 C         0.370048        -0.419247         3.088718
 C         0.275841        -1.873292         2.634867
 C        -0.956608        -0.836480         2.493395
 C        -1.052891        -0.117825         1.184487
 C         0.450529         0.415935         0.948451
 C         0.890662         0.908189        -0.306474
 O         1.263776        -0.518751         0.177106
 C         1.027282         0.703196         2.318961
 H         0.660425        -0.662175         5.110654
 H         0.676403        -2.268398         1.779402
 H         0.213378        -2.506103         3.438134
 H        -1.892918        -0.882010         3.058128
 H        -1.540980        -0.558821         0.245296
 H        -1.539055         0.797277         1.476763
 H         0.259394         0.983297        -1.194873
 H         1.641445         1.633554        -0.277196
 H         2.127948         0.548856         2.085476
 H         0.699576         1.689060         2.738176
