19
Iteration:  4133charge 0 multiplicity 1
 O         0.386572        -0.043949         4.578273
 C         0.334676        -0.428702         3.200155
 C         0.429492        -1.830853         2.716401
 C        -0.854113        -0.918784         2.619358
 C        -1.004266        -0.352755         1.159592
 C         0.357228         0.250659         0.881116
 C         0.736834         0.980237        -0.381888
 O         1.327571        -0.242067         0.006971
 C         0.870536         0.617340         2.227217
 H        -0.382149        -0.333451         5.167292
 H         0.904544        -2.023544         1.796978
 H         0.262534        -2.707602         3.404240
 H        -1.755487        -1.312761         3.213269
 H        -1.358851        -1.077370         0.412711
 H        -1.761642         0.400476         1.001158
 H         0.042820         1.082048        -1.219516
 H         1.384607         1.874815        -0.291234
 H         1.943626         0.830676         2.217010
 H         0.370801         1.463217         2.598540
