19
Iteration:  2368
 O         0.083391         0.052714         4.435437
 C         0.373016        -0.452194         3.144462
 C         0.082891        -1.934304         2.943625
 C        -0.967389        -0.992761         2.508925
 C        -0.950987        -0.232670         1.200299
 C         0.479482         0.296313         0.958923
 C         0.825599         1.097236        -0.307517
 O         1.267312        -0.176189        -0.176938
 C         1.302905         0.313090         2.265974
 H         0.738817        -0.099545         5.180262
 H         0.956299        -2.339930         2.501886
 H        -0.002919        -2.464142         3.880984
 H        -1.767929        -1.086667         3.187672
 H        -1.482645        -0.876931         0.449068
 H        -1.728941         0.627506         1.381026
 H         0.044696         1.350465        -1.090112
 H         1.427699         1.993896        -0.258262
 H         2.286212        -0.114197         2.073570
 H         1.670035         1.276515         2.692597
