19
Iteration:   627
 O         0.259977         0.017703         4.602029
 C         0.319090        -0.444298         3.271718
 C         0.129792        -1.945103         2.848636
 C        -0.937647        -0.874852         2.545855
 C        -0.981592        -0.218699         1.118720
 C         0.475257         0.347133         0.909368
 C         0.825004         1.044376        -0.242837
 O         1.331913        -0.315686        -0.260265
 C         1.154225         0.394094         2.259984
 H        -0.653850         0.112616         4.886860
 H         0.846167        -2.394966         2.159491
 H        -0.062496        -2.628436         3.702237
 H        -1.908874        -0.872746         3.085085
 H        -1.406110        -0.814429         0.265788
 H        -1.498984         0.696090         1.174513
 H        -0.072721         1.311188        -0.883247
 H         1.644235         1.675025        -0.439081
 H         2.198365         0.024615         2.166361
 H         1.150262         1.450205         2.597659
