19
Iteration:  1463charge 0 multiplicity 1
 O         0.421155        -0.128875         4.471097
 C         0.311247        -0.387007         3.089079
 C         0.102169        -1.869941         2.671098
 C        -0.974606        -0.820067         2.524359
 C        -1.054598        -0.240687         1.152137
 C         0.450795         0.372120         0.936207
 C         0.964472         0.940732        -0.259375
 O         1.279718        -0.426399         0.103853
 C         0.978813         0.718690         2.290065
 H         0.070246        -0.885570         5.010918
 H         0.582316        -2.406116         1.800672
 H         0.288980        -2.447200         3.578537
 H        -1.875629        -0.941340         3.072006
 H        -1.095846        -1.134709         0.367210
 H        -1.964666         0.390792         1.125057
 H         0.365819         1.043375        -1.190561
 H         1.804117         1.756638        -0.080900
 H         2.094180         0.715210         2.267742
 H         0.689325         1.652398         2.732237
