19
Iteration:  3969charge 0 multiplicity 1
 O         0.362372         0.000043         4.563258
 C         0.293419        -0.409511         3.185234
 C         0.334799        -1.876524         2.906675
 C        -0.924725        -0.955116         2.554810
 C        -0.997853        -0.434056         1.150591
 C         0.304936         0.254057         0.905127
 C         0.716996         1.130497        -0.181470
 O         1.379877        -0.225502        -0.199387
 C         1.064612         0.526893         2.120143
 H        -0.511236         0.023203         4.948437
 H         0.947248        -2.339787         2.075543
 H         0.138587        -2.517389         3.726797
 H        -1.733567        -1.260694         3.206452
 H        -1.193564        -1.185228         0.361149
 H        -1.900691         0.191710         1.117313
 H         0.063683         1.363233        -1.050406
 H         1.352659         1.930415         0.059869
 H         2.157406         0.393873         2.244743
 H         0.815994         1.599966         2.512989
