19
Iteration:   130
 O         0.060337        -0.184338         4.734397
 C         0.280012        -0.343141         3.317481
 C         0.389806        -1.696988         2.810043
 C        -0.847306        -0.875898         2.470076
 C        -0.943695        -0.087326         1.098189
 C         0.417505         0.227837         0.818792
 C         0.986342         0.975256        -0.313267
 O         1.036925        -0.476853        -0.195732
 C         1.121918         0.560227         2.276846
 H         0.944867        -0.450812         5.157949
 H         1.309265        -1.883722         2.246715
 H         0.276500        -2.431904         3.538964
 H        -1.822890        -1.178362         2.938975
 H        -1.477942        -0.681250         0.209836
 H        -1.649171         0.830039         1.183484
 H         0.373737         1.463386        -1.223184
 H         1.950390         1.299465        -0.208944
 H         2.130078         0.267646         2.180333
 H         1.042445         1.640580         2.345909
