19
Iteration:  4910
 O         0.254996         0.074737         4.694429
 C         0.335758        -0.398869         3.281308
 C         0.612846        -1.875843         2.861608
 C        -0.725035        -1.109973         2.464045
 C        -0.905908        -0.560778         1.020115
 C         0.350400         0.367337         0.854108
 C         0.475179         1.086449        -0.350504
 O         1.255136        -0.149762        -0.122674
 C         0.906976         0.593037         2.293993
 H        -0.492751        -0.338424         5.165252
 H         1.409881        -2.010641         2.108220
 H         0.520357        -2.624058         3.670945
 H        -1.594605        -1.362759         3.153716
 H        -0.959197        -1.173519         0.180867
 H        -1.839303        -0.011036         1.061547
 H        -0.156666         0.808871        -1.148240
 H         1.117607         2.010566        -0.457282
 H         2.025983         0.472808         2.259880
 H         0.714994         1.646872         2.487236
