19
Iteration:  4501charge 0 multiplicity 1
 O         0.542855        -0.066134         4.616776
 C         0.325145        -0.319360         3.220662
 C         0.302827        -1.806327         2.749237
 C        -0.952508        -1.074119         2.435690
 C        -0.943349        -0.434135         1.048291
 C         0.337487         0.326401         0.961550
 C         0.710479         0.964105        -0.339362
 O         1.301843        -0.295076         0.016993
 C         0.873943         0.697225         2.266620
 H        -0.351375        -0.081684         5.005782
 H         0.828190        -1.967966         1.843357
 H         0.402302        -2.547706         3.583414
 H        -1.835964        -1.274815         3.009543
 H        -1.099421        -0.979382         0.118548
 H        -1.709217         0.380754         1.240590
 H         0.053284         1.179126        -1.087864
 H         1.447337         1.783132        -0.175690
 H         1.975985         0.830373         2.348424
 H         0.445527         1.631544         2.588612
