19
Iteration:  2166
 O         0.235798        -0.141451         4.573773
 C         0.331455        -0.445858         3.138705
 C         0.314204        -1.845033         2.598888
 C        -0.867641        -0.886128         2.373859
 C        -1.018919        -0.039883         1.182496
 C         0.377029         0.426341         0.955171
 C         0.853196         0.908927        -0.289582
 O         1.259887        -0.513145         0.126558
 C         0.964702         0.637520         2.290868
 H         1.126681         0.137815         4.940995
 H         1.106617        -2.204877         1.888147
 H         0.155901        -2.565068         3.478521
 H        -1.699066        -1.216847         2.951477
 H        -1.545832        -0.516077         0.343528
 H        -1.628731         0.796645         1.331953
 H         0.153076         0.758994        -1.133221
 H         1.854448         1.481296        -0.445723
 H         2.034824         0.632313         2.319909
 H         0.563871         1.514815         2.842233
