19
Iteration:  4695
 O         0.286425         0.026600         4.537906
 C         0.309856        -0.428423         3.224214
 C         0.464321        -1.818064         2.809831
 C        -0.815540        -1.059254         2.528929
 C        -0.905048        -0.519974         1.230373
 C         0.242598         0.343051         0.923833
 C         0.669958         1.088754        -0.413043
 O         1.320028        -0.198638        -0.107088
 C         0.894800         0.608970         2.320996
 H         0.601796        -0.652952         5.161725
 H         0.921386        -2.126929         1.883933
 H         0.525609        -2.548228         3.591905
 H        -1.752930        -1.285970         3.041259
 H        -1.098472        -1.297717         0.369232
 H        -1.723354         0.169838         1.171747
 H         0.228043         0.857725        -1.392901
 H         1.371923         2.084788        -0.422433
 H         1.969788         0.774429         2.170084
 H         0.428946         1.628723         2.756036
