19
Iteration:  2679
 O         0.348139         0.185415         4.460363
 C         0.278511        -0.497047         3.255081
 C         0.044637        -1.916912         3.027604
 C        -0.998419        -0.982673         2.490163
 C        -0.961902        -0.437167         1.038966
 C         0.437127         0.178759         0.863207
 C         0.814935         1.225932        -0.138170
 O         1.337528        -0.105684        -0.210550
 C         1.161885         0.308969         2.239890
 H         0.353847        -0.486065         5.189411
 H         0.739069        -2.427477         2.310240
 H        -0.371145        -2.464765         3.894463
 H        -1.823780        -0.914027         3.074691
 H        -1.209840        -1.058346         0.170636
 H        -1.634634         0.451245         0.991003
 H         0.041345         1.361606        -0.895690
 H         1.568587         1.917587        -0.004516
 H         2.182812        -0.097726         2.120235
 H         1.372047         1.319517         2.546699
