19
Iteration:  3444
 O         0.208361         0.041682         4.491806
 C         0.309612        -0.417226         3.196899
 C         0.256629        -1.844817         2.910389
 C        -0.901596        -0.937896         2.486002
 C        -0.963686        -0.158682         1.184938
 C         0.445549         0.191606         0.849320
 C         0.837643         1.018539        -0.263454
 O         1.265543        -0.284375        -0.185187
 C         1.102311         0.393463         2.280546
 H         0.076059        -0.632049         5.227367
 H         0.966435        -2.243131         2.197148
 H        -0.048345        -2.511068         3.782785
 H        -1.704020        -1.073474         3.123453
 H        -1.508456        -0.724066         0.376994
 H        -1.553473         0.706043         1.367072
 H        -0.032096         1.390095        -0.876000
 H         1.698378         1.769072        -0.047669
 H         2.208939         0.265499         2.296031
 H         0.786005         1.421690         2.622424
