19
Iteration:  4148
 O         0.378152        -0.016820         4.584766
 C         0.349293        -0.418408         3.244408
 C         0.349310        -1.905683         2.757197
 C        -0.894832        -0.956372         2.513430
 C        -0.980751        -0.432523         1.181335
 C         0.383102         0.321101         0.874633
 C         0.629329         1.014946        -0.389206
 O         1.317911        -0.231836        -0.045729
 C         0.987734         0.672227         2.330347
 H        -0.459918        -0.388658         4.819967
 H         0.934670        -2.268139         1.896809
 H         0.358386        -2.609915         3.511856
 H        -1.804008        -1.080642         2.996506
 H        -1.077344        -1.262212         0.392518
 H        -1.696101         0.385510         1.130616
 H         0.144154         0.775480        -1.320849
 H         1.210465         1.953779        -0.282287
 H         2.098166         0.527403         2.243662
 H         0.791753         1.831295         2.570378
