19
Iteration:  4544
 O         0.167148        -0.096443         4.740154
 C         0.429818        -0.412496         3.271790
 C         0.422960        -1.904690         2.785760
 C        -0.795471        -1.023065         2.556488
 C        -0.975789        -0.370479         1.115353
 C         0.337988         0.319067         0.828775
 C         0.678763         1.056169        -0.386554
 O         1.252358        -0.233178        -0.150398
 C         1.015891         0.596503         2.257588
 H         0.270296         0.848846         4.876667
 H         0.943273        -1.980493         1.894372
 H         0.411061        -2.636885         3.596612
 H        -1.609409        -0.845990         3.224350
 H        -1.065228        -1.205137         0.377394
 H        -1.864221         0.248217         1.064744
 H         0.134974         0.976600        -1.278223
 H         1.321837         1.981996        -0.331088
 H         2.089564         0.581129         2.170455
 H         0.790687         1.589282         2.547176
