19
Iteration:  3235
 O         0.215578        -0.014390         4.537379
 C         0.260578        -0.405121         3.208960
 C         0.289085        -1.911538         2.782059
 C        -0.915308        -0.951468         2.408702
 C        -0.960266        -0.212559         1.127039
 C         0.461991         0.310424         0.982435
 C         0.787529         1.039063        -0.204983
 O         1.205572        -0.344761        -0.144505
 C         1.137709         0.456721         2.343196
 H         0.783137         0.730725         4.716895
 H         0.997398        -2.306996         2.135995
 H         0.005627        -2.577196         3.600810
 H        -1.826545        -1.107909         3.088817
 H        -1.399500        -0.762735         0.218897
 H        -1.648275         0.684575         1.042303
 H         0.132338         1.037496        -1.087352
 H         1.536788         1.762590        -0.128550
 H         2.219213         0.257297         2.326543
 H         1.226240         1.539701         2.753112
