19
Iteration:  3065
 O         0.222464         0.108989         4.628074
 C         0.293967        -0.454925         3.315900
 C         0.285892        -1.845549         2.725229
 C        -0.950912        -0.911074         2.476436
 C        -0.917759        -0.294448         1.100091
 C         0.486318         0.291802         0.950700
 C         0.865606         1.060561        -0.250676
 O         1.149345        -0.316805        -0.256742
 C         1.120703         0.442361         2.346979
 H        -0.110732        -0.533507         5.321463
 H         1.059919        -2.118037         1.966641
 H        -0.031088        -2.831977         3.214646
 H        -1.927022        -1.217571         2.976219
 H        -1.149844        -1.142531         0.481942
 H        -1.634683         0.487074         0.890835
 H        -0.008647         1.489458        -0.834421
 H         1.888833         1.524371        -0.070620
 H         2.189568         0.154742         2.266762
 H         1.073646         1.481790         2.590368
