19
Iteration:  3708
 O         0.371615        -0.090985         4.561929
 C         0.349314        -0.369893         3.106559
 C         0.389788        -1.773864         2.613690
 C        -0.911743        -0.963117         2.465917
 C        -1.059210        -0.230390         1.128010
 C         0.285443         0.335340         0.947289
 C         0.892321         0.841169        -0.242118
 O         1.322267        -0.472441         0.109992
 C         0.828561         0.805952         2.281190
 H         0.759145        -0.927527         4.909507
 H         0.965093        -1.929527         1.755486
 H         0.248910        -2.601216         3.358971
 H        -1.691684        -1.104652         3.254625
 H        -1.546841        -0.670560         0.232806
 H        -1.756912         0.550214         1.411699
 H         0.312246         0.958897        -1.253573
 H         1.611402         1.757868        -0.167773
 H         1.886055         1.015749         2.114910
 H         0.327896         1.641554         2.754737
