19
Iteration:  1209
 O         0.219991         0.024404         4.450712
 C         0.379361        -0.523688         3.222659
 C         0.124315        -1.959119         2.745152
 C        -0.932012        -0.864723         2.528054
 C        -1.013084        -0.168905         1.145233
 C         0.424644         0.319754         0.956140
 C         0.867351         1.006455        -0.272338
 O         1.280477        -0.323420        -0.010953
 C         1.123131         0.491932         2.250507
 H         1.005003        -0.188949         4.982693
 H         0.563020        -2.412240         1.966250
 H        -0.131818        -2.596002         3.548748
 H        -1.694488        -0.763974         3.252152
 H        -1.267870        -0.930609         0.288970
 H        -1.821347         0.562302         1.274425
 H         0.393044         1.205309        -1.265039
 H         1.664071         1.669042        -0.024277
 H         2.315856         0.505634         2.236530
 H         0.785896         1.536320         2.520732
