19
Iteration:   937charge 0 multiplicity 1
 O         0.256198        -0.070069         4.567907
 C         0.316813        -0.380912         3.165350
 C         0.065103        -1.846422         2.898312
 C        -1.014574        -0.826656         2.565210
 C        -0.936060        -0.344042         1.110385
 C         0.488873         0.238062         0.849616
 C         0.883953         1.148933        -0.213460
 O         1.273714        -0.258217        -0.137011
 C         1.102869         0.429817         2.191591
 H         1.083796        -0.136382         5.026906
 H         0.541114        -2.332320         2.090737
 H        -0.049556        -2.468114         3.761661
 H        -1.956940        -0.856803         3.222323
 H        -0.936465        -1.330449         0.481286
 H        -1.853335         0.197081         0.974203
 H         0.282682         1.310936        -1.173688
 H         1.797181         1.866677        -0.091754
 H         2.057504        -0.027797         2.131821
 H         1.173154         1.433531         2.598519
