19
Iteration:  4517
 O         0.420322        -0.156252         4.568645
 C         0.251467        -0.347100         3.153561
 C         0.413902        -1.826111         2.814780
 C        -0.892299        -1.028132         2.501232
 C        -0.956840        -0.362647         1.105282
 C         0.437176         0.304502         0.903691
 C         0.670129         1.039467        -0.263778
 O         1.260676        -0.321987        -0.053073
 C         0.937599         0.730077         2.299293
 H        -0.246159         0.423600         4.951131
 H         1.052068        -2.275492         1.973340
 H         0.273939        -2.297081         3.788393
 H        -1.878448        -1.231831         2.975282
 H        -1.087003        -1.240896         0.423962
 H        -1.825374         0.307357         0.922309
 H        -0.083744         0.911471        -1.146617
 H         1.298655         1.903473        -0.367780
 H         2.061481         0.608576         2.293681
 H         0.721742         1.839770         2.495079
