19
Iteration:  4605charge 0 multiplicity 1
 O         0.277153         0.103754         4.535863
 C         0.345849        -0.400977         3.236945
 C         0.416239        -1.886421         2.905799
 C        -0.775637        -1.071658         2.488317
 C        -0.945548        -0.471570         1.146769
 C         0.353309         0.244608         0.896360
 C         0.682889         1.159231        -0.228330
 O         1.212485        -0.167752        -0.153203
 C         0.995413         0.547765         2.202200
 H        -0.107866        -0.570066         5.117744
 H         1.261989        -2.318986         2.345346
 H         0.062450        -2.713410         3.537102
 H        -1.667035        -1.375555         3.019385
 H        -1.132518        -1.345422         0.469047
 H        -1.871444         0.137017         1.104857
 H         0.008147         1.214416        -1.138706
 H         1.431004         1.965072        -0.229644
 H         2.089002         0.373821         2.143550
 H         0.732154         1.642972         2.453128
