19
Iteration:  3204
 O         0.195672         0.051321         4.502051
 C         0.338018        -0.473190         3.229454
 C         0.155055        -2.018783         2.893536
 C        -0.891373        -0.864918         2.571673
 C        -0.936292        -0.332300         1.086044
 C         0.403724         0.321941         0.935738
 C         0.840266         1.141135        -0.296329
 O         1.285094        -0.197500        -0.150641
 C         1.090484         0.407848         2.233586
 H         0.802221        -0.198944         5.246446
 H         0.640885        -2.530077         2.125716
 H         0.087191        -2.656308         3.777030
 H        -1.773762        -0.800880         3.324839
 H        -1.238485        -1.224628         0.443162
 H        -1.709475         0.537425         1.119415
 H         0.257608         1.104582        -1.231383
 H         1.580423         1.907074        -0.240159
 H         2.110385         0.043296         1.958226
 H         1.055211         1.408830         2.727344
