19
Iteration:  1804
 O         0.280194        -0.255609         4.636788
 C         0.318562        -0.390862         3.271648
 C         0.280635        -1.789794         2.701881
 C        -0.948098        -0.783557         2.450099
 C        -1.018124        -0.203385         1.043083
 C         0.349150         0.349992         0.892486
 C         0.894178         0.927388        -0.334376
 O         1.284719        -0.415932         0.038846
 C         1.002896         0.703497         2.302618
 H         1.012565        -0.698446         5.159166
 H         0.952389        -2.046855         1.929403
 H        -0.022289        -2.467342         3.474590
 H        -1.836816        -0.989793         3.081471
 H        -1.246097        -1.117907         0.392917
 H        -1.769517         0.753905         0.844194
 H         0.373719         0.970443        -1.296174
 H         1.676365         1.611851        -0.404047
 H         2.056106         0.642595         2.190762
 H         0.718138         1.745637         2.619597
