19
Iteration:  3867
 O         0.227631         0.018228         4.590067
 C         0.296565        -0.399557         3.233464
 C         0.188913        -1.873048         2.972161
 C        -0.899038        -0.966206         2.638086
 C        -0.932128        -0.563394         1.072983
 C         0.403533         0.196241         0.804976
 C         0.723592         1.206189        -0.208927
 O         1.343645        -0.110318        -0.280546
 C         1.106098         0.429773         2.199667
 H         1.146236         0.379265         4.716787
 H         0.709104        -2.419281         2.113636
 H         0.253698        -2.636014         3.931824
 H        -1.809183        -0.924628         3.290122
 H        -1.337425        -1.376096         0.436617
 H        -1.682979         0.232294         1.058237
 H         0.073476         1.352078        -1.059041
 H         1.245178         2.192646         0.054680
 H         2.206827         0.222298         2.242673
 H         0.909300         1.517326         2.430452
