19
Iteration:  1253
 O         0.373081        -0.129867         4.681740
 C         0.272117        -0.335449         3.233249
 C         0.069168        -1.749331         2.950586
 C        -1.033365        -0.798755         2.426464
 C        -0.937517        -0.361592         1.044215
 C         0.473082         0.234762         0.866728
 C         0.813882         1.084091        -0.292575
 O         1.354588        -0.264879        -0.179447
 C         1.081870         0.430939         2.273300
 H         0.866873        -0.923331         4.934475
 H         0.615998        -2.196932         2.236533
 H        -0.364226        -2.401159         3.691373
 H        -1.979883        -0.929752         2.894753
 H        -1.151834        -1.210053         0.235763
 H        -1.676464         0.442337         0.831373
 H        -0.024313         1.118200        -1.061704
 H         1.448504         1.946518        -0.167110
 H         2.272364         0.369080         2.373857
 H         0.991868         1.472968         2.694374
