19
Iteration:  3141
 O         0.401885         0.096705         4.563298
 C         0.293399        -0.504147         3.274641
 C         0.017082        -1.864336         2.861925
 C        -1.006749        -0.821145         2.554868
 C        -0.898316        -0.492554         1.045578
 C         0.490221         0.243795         0.928368
 C         0.789660         1.162912        -0.246757
 O         1.297578        -0.156787        -0.224498
 C         1.128878         0.382558         2.323120
 H         0.045391        -0.568240         5.162765
 H         0.708037        -2.229417         2.067503
 H        -0.307165        -2.582541         3.668638
 H        -2.054801        -1.070933         3.028737
 H        -0.877804        -1.302918         0.363763
 H        -1.761404         0.039519         0.634946
 H        -0.093060         1.122699        -0.951843
 H         1.580136         2.038637        -0.251557
 H         2.205628         0.261735         2.063825
 H         1.108680         1.404733         2.614916
