19
Iteration:  2403charge 0 multiplicity 1
 O         0.143503         0.001510         4.638206
 C         0.303651        -0.486020         3.319000
 C         0.130404        -1.930152         2.852219
 C        -0.924352        -0.820899         2.462596
 C        -0.917520        -0.214943         1.096786
 C         0.543395         0.268093         0.922042
 C         0.775373         1.058610        -0.321431
 O         1.244846        -0.258134        -0.266582
 C         1.207162         0.401098         2.316908
 H         1.013565        -0.091037         5.121703
 H         0.962418        -2.231091         2.318950
 H        -0.228266        -2.570480         3.641045
 H        -1.889663        -1.003276         2.861111
 H        -0.956555        -0.946746         0.253738
 H        -1.727839         0.597750         0.933868
 H        -0.114279         1.187087        -0.849117
 H         1.524486         1.805760        -0.257557
 H         2.239470         0.059986         2.144955
 H         1.047001         1.414791         2.827587
