19
Iteration:  3221charge 0 multiplicity 1
 O         0.155771         0.045430         4.518711
 C         0.359394        -0.494921         3.178706
 C         0.158106        -1.923935         2.832339
 C        -0.933041        -1.001117         2.524678
 C        -0.982945        -0.285494         1.186691
 C         0.452418         0.349474         0.907531
 C         0.818669         1.099565        -0.313214
 O         1.260336        -0.275187        -0.064658
 C         1.198674         0.446046         2.269838
 H         1.048985         0.439116         4.636397
 H         0.793167        -2.281443         1.950623
 H        -0.110372        -2.659009         3.610009
 H        -1.825624        -1.074271         3.049239
 H        -1.071564        -0.930317         0.333487
 H        -1.746645         0.425424         1.311165
 H         0.016410         1.438517        -0.985432
 H         1.623434         1.902958        -0.299547
 H         2.216192         0.093348         2.153178
 H         1.043858         1.468762         2.662197
