19
Iteration:  3853charge 0 multiplicity 1
 O         0.316403         0.002490         4.524056
 C         0.319058        -0.372308         3.204201
 C         0.195597        -1.958662         2.989144
 C        -0.947446        -0.989832         2.494940
 C        -0.955635        -0.489885         1.141477
 C         0.460267         0.183935         0.889516
 C         0.677620         1.170967        -0.240539
 O         1.303609        -0.127546        -0.208365
 C         1.084718         0.502770         2.252700
 H         0.881442         0.779317         4.732346
 H         0.934016        -2.277871         2.279412
 H        -0.115375        -2.550547         3.840415
 H        -1.928420        -1.082985         3.032761
 H        -0.946678        -1.213864         0.392271
 H        -1.801624         0.110271         0.870110
 H        -0.081471         1.375266        -1.068718
 H         1.485717         1.875900         0.022386
 H         2.151690         0.344685         2.229958
 H         0.997142         1.500595         2.560357
