19
Iteration:  2886charge 0 multiplicity 1
 O         0.118871        -0.011151         4.615437
 C         0.290091        -0.367881         3.244931
 C         0.379711        -1.833420         2.795174
 C        -0.856344        -0.968799         2.453216
 C        -0.990085        -0.208332         1.110670
 C         0.391101         0.313372         0.913415
 C         0.839083         1.010357        -0.328754
 O         1.211009        -0.346525        -0.076699
 C         1.150100         0.508404         2.269810
 H         0.472705        -0.757575         5.092198
 H         1.004374        -2.220749         1.959783
 H         0.102616        -2.635347         3.562352
 H        -1.837612        -1.233113         3.003990
 H        -1.407440        -0.710345         0.216261
 H        -1.651449         0.625822         1.213802
 H        -0.042619         1.073607        -1.106948
 H         1.624307         1.875208        -0.169781
 H         2.193314         0.195116         2.118727
 H         1.320904         1.494108         2.713214
