19
Iteration:   312
 O         0.113388         0.080472         4.524171
 C         0.315280        -0.490072         3.247950
 C         0.291993        -1.947028         2.904090
 C        -0.944868        -0.963652         2.471126
 C        -0.968493        -0.130190         1.154556
 C         0.478206         0.294765         0.954467
 C         0.838035         1.083506        -0.307518
 O         1.226103        -0.324721        -0.130814
 C         1.177549         0.352768         2.263171
 H         0.810153         0.717135         4.705873
 H         0.992076        -2.251184         2.156105
 H        -0.147468        -2.667116         3.543396
 H        -1.879376        -1.363450         2.971502
 H        -1.301079        -0.706898         0.295544
 H        -1.643553         0.763078         1.163780
 H        -0.081584         1.238529        -1.070742
 H         1.682757         1.787879        -0.326661
 H         2.198502         0.020441         2.126209
 H         1.186210         1.389846         2.612974
