19
Iteration:  4638charge 0 multiplicity 1
 O         0.358852        -0.077371         4.591135
 C         0.263775        -0.398466         3.255769
 C         0.449574        -1.882654         2.924821
 C        -0.874894        -1.043142         2.569973
 C        -0.946315        -0.495694         1.094452
 C         0.420025         0.280275         0.890625
 C         0.643214         1.121982        -0.283648
 O         1.269597        -0.150370        -0.175435
 C         0.945274         0.621530         2.237485
 H        -0.340120         0.636945         4.591148
 H         1.060989        -2.076200         2.058752
 H         0.300217        -2.608346         3.763451
 H        -1.777599        -1.185574         3.142404
 H        -0.802847        -1.423332         0.485244
 H        -1.776544         0.085170         0.682357
 H        -0.173293         1.006916        -1.059237
 H         1.305356         1.952689        -0.446899
 H         2.034907         0.481289         2.150118
 H         0.819324         1.752149         2.436506
