19
Iteration:  2791charge 0 multiplicity 1
 O         0.322220        -0.004092         4.573150
 C         0.294192        -0.454728         3.183235
 C        -0.016252        -1.871602         3.049939
 C        -1.003152        -0.841244         2.559603
 C        -0.933754        -0.568347         1.100798
 C         0.438493         0.277301         0.835515
 C         0.769820         1.269323        -0.267734
 O         1.444541        -0.063339        -0.209435
 C         1.167279         0.240521         2.201969
 H         0.458158         0.968515         4.701670
 H         0.424556        -2.370814         2.217413
 H        -0.286758        -2.593658         3.820394
 H        -1.967550        -0.904490         3.245085
 H        -0.929167        -1.496885         0.512657
 H        -1.945399        -0.071749         0.741327
 H        -0.065369         1.317457        -0.950341
 H         1.316451         2.124149        -0.009027
 H         2.128105        -0.360376         2.139916
 H         1.514769         1.283395         2.521563
