19
Iteration:   525
 O         0.211134        -0.193506         4.546218
 C         0.373948        -0.448558         3.116212
 C         0.213355        -1.840077         2.751611
 C        -0.871709        -0.834812         2.497791
 C        -1.013044        -0.195853         1.187104
 C         0.404127         0.362041         0.957598
 C         0.888900         0.902828        -0.395651
 O         1.268264        -0.408662         0.029422
 C         1.015596         0.674876         2.275803
 H         0.945288         0.394034         4.802726
 H         0.862500        -2.196184         1.969996
 H         0.096102        -2.319547         3.783195
 H        -1.847698        -1.147666         2.957697
 H        -1.473199        -0.614873         0.357021
 H        -1.604043         0.715306         1.340766
 H         0.146738         0.915753        -1.202132
 H         1.710911         1.655635        -0.128847
 H         2.120092         0.632036         2.139754
 H         0.742675         1.566230         2.807886
