19
Iteration:  2196
 O         0.184557        -0.173277         4.594251
 C         0.320229        -0.375679         3.151675
 C         0.386241        -1.800520         2.586813
 C        -0.880062        -0.871402         2.510811
 C        -1.097327        -0.187216         1.183601
 C         0.367272         0.380476         0.903202
 C         1.124953         0.940351        -0.261154
 O         1.044465        -0.481364         0.032150
 C         0.984475         0.709806         2.268998
 H         1.079139        -0.180516         4.913684
 H         0.995148        -2.006275         1.715054
 H         0.609910        -2.572979         3.324576
 H        -1.739178        -1.163772         3.154890
 H        -1.479829        -0.893371         0.441700
 H        -1.620650         0.762557         1.431881
 H         0.609270         1.081752        -1.229572
 H         2.241059         1.153476        -0.189210
 H         2.105155         0.608599         2.353996
 H         0.554689         1.554432         2.659670
