19
Iteration:  2158
 O         0.254143        -0.147126         4.593924
 C         0.304774        -0.435618         3.167104
 C         0.337751        -1.905640         2.643896
 C        -0.897921        -0.841574         2.377394
 C        -1.016438        -0.045721         1.108736
 C         0.402628         0.365245         0.951694
 C         0.826509         0.854237        -0.360349
 O         1.274938        -0.425100         0.167201
 C         1.002776         0.598317         2.321452
 H         1.180542        -0.020457         4.929806
 H         1.090449        -2.142811         1.880113
 H         0.021809        -2.588672         3.457123
 H        -1.838349        -1.126467         2.758106
 H        -1.607832        -0.518542         0.293278
 H        -1.625973         0.914706         1.325361
 H         0.054446         0.950814        -1.091726
 H         1.535157         1.592491        -0.579249
 H         2.065585         0.768695         2.233985
 H         0.643733         1.667445         2.828343
