19
Iteration:  4766
 O         0.182911        -0.171433         4.634507
 C         0.382860        -0.371612         3.231127
 C         0.602453        -1.712081         2.679169
 C        -0.758830        -1.117109         2.498797
 C        -1.048856        -0.426337         1.277576
 C         0.368320         0.414148         0.875765
 C         0.724900         0.967761        -0.447942
 O         1.280564        -0.293866         0.020385
 C         0.791207         0.767115         2.235492
 H         0.888711         0.494829         4.825641
 H         1.243307        -1.966158         1.829134
 H         0.502232        -2.562944         3.447545
 H        -1.692813        -1.436763         2.951343
 H        -1.095805        -1.107616         0.514786
 H        -2.099168        -0.040682         1.389732
 H         0.005796         0.842397        -1.315622
 H         1.337835         1.794313        -0.453370
 H         1.913995         0.912762         2.301867
 H         0.341734         1.672464         2.561440
