19
Iteration:  3269charge 0 multiplicity 1
 O         0.288009        -0.206243         4.700759
 C         0.287030        -0.342841         3.255834
 C         0.287331        -1.823456         2.729679
 C        -0.901243        -0.922659         2.511705
 C        -1.025690        -0.198061         1.164902
 C         0.393876         0.336847         0.860662
 C         0.954877         0.986544        -0.334445
 O         1.186280        -0.421749        -0.180073
 C         1.065384         0.617641         2.332676
 H        -0.319936         0.533084         4.946230
 H         1.007857        -2.010917         1.977107
 H         0.119326        -2.596945         3.436972
 H        -1.942825        -1.078619         2.979507
 H        -1.277965        -0.899602         0.298251
 H        -1.582860         0.793605         1.213368
 H         0.499921         1.100300        -1.310188
 H         1.812854         1.624154        -0.301328
 H         2.152317         0.447932         2.495957
 H         0.711311         1.697626         2.408915
