19
Iteration:  2004charge 0 multiplicity 1
 O         0.111398         0.061904         4.607801
 C         0.226213        -0.434783         3.256025
 C         0.116273        -1.886157         2.918335
 C        -0.937751        -0.863834         2.531656
 C        -0.823278        -0.396736         1.142513
 C         0.575169         0.214735         0.914774
 C         0.827247         1.214012        -0.254266
 O         1.164683        -0.184063        -0.362313
 C         1.247100         0.298865         2.291865
 H         0.666192        -0.463763         5.214554
 H         0.883196        -2.381770         2.208865
 H        -0.173463        -2.616585         3.714594
 H        -1.858263        -0.650877         3.172173
 H        -0.933386        -1.196377         0.348079
 H        -1.625510         0.487074         0.836712
 H         0.001981         1.478292        -0.782211
 H         1.759290         1.762245        -0.245982
 H         2.145301        -0.220260         2.332813
 H         1.442206         1.435698         2.378354
