19
Iteration:  4484
 O         0.528266        -0.006764         4.573267
 C         0.324707        -0.468864         3.232509
 C         0.377631        -1.814823         2.680388
 C        -0.895455        -0.945682         2.506977
 C        -1.104585        -0.362530         1.124130
 C         0.296033         0.290009         0.879666
 C         0.818089         1.025910        -0.351245
 O         1.343216        -0.299868         0.046929
 C         0.793278         0.707235         2.308159
 H        -0.066900        -0.489233         5.185739
 H         1.165832        -2.215655         1.973772
 H         0.181517        -2.676284         3.332268
 H        -1.784480        -1.416283         2.983930
 H        -1.225473        -1.273956         0.479626
 H        -1.924477         0.279501         0.825882
 H         0.196267         0.706594        -1.270730
 H         1.508542         1.861481        -0.410343
 H         1.915048         0.750163         2.391351
 H         0.293800         1.637636         2.747085
