19
Iteration:  3082charge 0 multiplicity 1
 O         0.286652         0.142098         4.594327
 C         0.231491        -0.423737         3.290363
 C         0.180365        -1.972931         2.882366
 C        -0.886858        -0.974403         2.451797
 C        -0.904093        -0.295335         1.096373
 C         0.490496         0.254580         0.874808
 C         0.861245         1.176812        -0.222979
 O         1.182497        -0.298441        -0.272149
 C         1.098265         0.396674         2.328307
 H        -0.097294        -0.458684         5.295659
 H         0.899399        -2.206271         2.098608
 H        -0.008298        -2.719926         3.576515
 H        -1.796261        -1.216658         2.901469
 H        -1.096318        -0.832224         0.108112
 H        -1.676306         0.506661         1.368171
 H         0.211089         1.404248        -1.044569
 H         1.556535         1.959640        -0.192921
 H         2.154485         0.085928         2.320365
 H         1.003193         1.468194         2.719209
