19
Iteration:  2509
 O         0.186581        -0.306812         4.621586
 C         0.341896        -0.328516         3.221339
 C         0.323926        -1.728460         2.567462
 C        -0.913817        -0.817573         2.466861
 C        -1.030064        -0.078242         1.145206
 C         0.467326         0.312805         0.938858
 C         0.811623         0.801422        -0.370352
 O         1.284688        -0.476885         0.089950
 C         0.986556         0.744847         2.327272
 H         1.020006        -0.437419         5.161562
 H         0.933453        -1.978669         1.746767
 H         0.260589        -2.540410         3.284378
 H        -1.817861        -0.920336         2.985462
 H        -1.224230        -0.677268         0.275726
 H        -1.618310         0.774776         1.080422
 H         0.162915         0.827699        -1.332725
 H         1.632983         1.551042        -0.498649
 H         2.063762         0.805754         2.334723
 H         0.697840         1.670939         2.751273
