19
Iteration:   575charge 0 multiplicity 1
 O         0.462478        -0.168706         4.582277
 C         0.243664        -0.358651         3.234391
 C         0.115264        -1.799940         2.819953
 C        -1.003666        -0.857656         2.485299
 C        -0.997594        -0.294469         1.063655
 C         0.414170         0.292376         0.898297
 C         0.891798         0.983855        -0.245006
 O         1.297231        -0.347179        -0.100285
 C         1.021799         0.560746         2.340854
 H         0.793061         0.675772         4.835577
 H         0.655966        -2.163362         1.939387
 H        -0.276488        -2.529448         3.570052
 H        -2.027769        -0.832481         2.859178
 H        -1.027586        -1.217729         0.327665
 H        -1.779183         0.318730         0.518604
 H         0.317902         1.176067        -1.215342
 H         1.517751         1.860512        -0.031847
 H         2.107567         0.347141         2.403161
 H         0.850176         1.718205         2.641820
