19
Iteration:   941
 O         0.228263        -0.059619         4.571338
 C         0.349780        -0.407836         3.204499
 C         0.081726        -1.835984         2.920718
 C        -1.018922        -0.835043         2.607476
 C        -0.941186        -0.366158         1.094929
 C         0.475318         0.252891         0.831916
 C         0.935467         1.181152        -0.235708
 O         1.255778        -0.290519        -0.187616
 C         1.111651         0.418716         2.198205
 H         0.960999        -0.228789         5.249940
 H         0.657813        -2.204226         2.021484
 H        -0.166002        -2.515512         3.723596
 H        -1.940461        -0.938076         3.241810
 H        -1.015730        -1.166498         0.421631
 H        -1.862710         0.268375         0.990471
 H         0.314861         1.438661        -1.097939
 H         1.649756         1.941222        -0.080541
 H         2.131372         0.031035         2.181193
 H         1.102393         1.508608         2.463417
