19
Iteration:  1990charge 0 multiplicity 1
 O         0.221019         0.084536         4.617497
 C         0.304370        -0.428137         3.298536
 C         0.057122        -1.925486         2.990582
 C        -0.959505        -0.869677         2.474307
 C        -0.881366        -0.373290         1.009165
 C         0.484703         0.305087         0.853949
 C         0.848531         1.170016        -0.211707
 O         1.200527        -0.218725        -0.324994
 C         1.216931         0.310203         2.308490
 H         0.703029        -0.578254         5.180232
 H         0.701200        -2.263793         2.177845
 H        -0.193645        -2.586593         3.787312
 H        -1.971432        -1.097791         2.872392
 H        -0.854914        -1.272425         0.372089
 H        -1.770417         0.309121         0.848683
 H         0.161582         1.570788        -0.990772
 H         1.602239         1.978369         0.018148
 H         2.302822        -0.056929         2.187324
 H         1.226869         1.314336         2.902832
