19
Iteration:  3165
 O         0.443420         0.011248         4.686707
 C         0.188666        -0.361584         3.205570
 C         0.094831        -1.820117         2.929522
 C        -1.042167        -0.863520         2.489626
 C        -0.803747        -0.450983         0.983033
 C         0.540936         0.162545         0.890843
 C         0.759253         1.124405        -0.216268
 O         1.240247        -0.200565        -0.292366
 C         1.050060         0.456626         2.321995
 H         0.188000        -0.840440         5.031777
 H         0.830672        -2.332808         2.175195
 H        -0.185550        -2.431672         3.822434
 H        -2.005581        -0.862382         3.008021
 H        -0.898725        -1.126319         0.184794
 H        -1.484672         0.265638         0.640889
 H        -0.156697         1.324279        -0.794944
 H         1.542922         1.943793         0.119631
 H         2.086097         0.067324         2.405889
 H         1.201805         1.485542         2.563921
