19
Iteration:  4112
 O         0.468772        -0.061682         4.587241
 C         0.377584        -0.341750         3.177490
 C         0.429935        -1.772742         2.706495
 C        -0.918500        -1.092544         2.428139
 C        -1.086112        -0.351172         1.138012
 C         0.294982         0.300731         0.953699
 C         0.818057         0.962104        -0.278721
 O         1.301606        -0.396924        -0.048118
 C         0.843625         0.816057         2.310869
 H        -0.143978        -0.461789         5.165273
 H         1.017588        -2.052613         1.903599
 H         0.454895        -2.451509         3.575616
 H        -1.927809        -1.318332         2.911744
 H        -1.455798        -0.992184         0.301640
 H        -1.930744         0.243892         1.313503
 H         0.255591         1.050964        -1.196838
 H         1.461848         1.861584        -0.175084
 H         1.931975         0.824926         2.449426
 H         0.415082         1.805742         2.616493
