19
Iteration:  4975
 O         0.230782         0.112698         4.596553
 C         0.347464        -0.391324         3.253327
 C         0.570779        -1.837164         2.822996
 C        -0.687098        -1.139327         2.523813
 C        -0.918317        -0.695252         1.119518
 C         0.281270         0.268349         0.893009
 C         0.610950         1.107895        -0.307208
 O         1.267649        -0.094219        -0.160652
 C         0.807245         0.674611         2.262011
 H         0.693036        -0.583144         5.122095
 H         1.391608        -2.053079         2.128155
 H         0.294720        -2.631566         3.595925
 H        -1.565326        -1.615695         3.091904
 H        -0.973290        -1.446459         0.424042
 H        -1.821948        -0.058888         0.993270
 H        -0.028340         1.174025        -1.128087
 H         1.123116         2.109504        -0.286263
 H         1.953296         0.757399         2.407018
 H         0.317034         1.635676         2.589006
