19
Iteration:  4552
 O         0.140903        -0.054753         4.732676
 C         0.381826        -0.387129         3.312972
 C         0.436849        -1.960148         2.768603
 C        -0.805925        -1.020535         2.541466
 C        -0.960495        -0.387191         1.134581
 C         0.372676         0.327742         0.889022
 C         0.667442         1.137190        -0.409151
 O         1.266899        -0.280182        -0.162202
 C         1.036298         0.622269         2.230092
 H         0.484315         0.833296         4.845137
 H         0.994070        -2.399797         1.916298
 H         0.455115        -2.756958         3.509299
 H        -1.701533        -1.196984         3.197961
 H        -1.235176        -1.334138         0.479969
 H        -1.775397         0.272014         1.121596
 H        -0.111400         1.123678        -1.323634
 H         1.353191         2.054563        -0.230150
 H         2.075773         0.463736         1.960670
 H         0.896781         1.734206         2.513990
