19
Iteration:  2072charge 0 multiplicity 1
 O         0.325626         0.108442         4.518313
 C         0.229403        -0.453759         3.218944
 C         0.096375        -1.960806         2.911788
 C        -1.020267        -1.028035         2.540753
 C        -0.948741        -0.301233         1.099871
 C         0.435215         0.288407         0.929148
 C         0.916329         1.161429        -0.270079
 O         1.298391        -0.204296        -0.189167
 C         1.078363         0.411609         2.315219
 H         1.082355        -0.410569         4.777340
 H         0.797163        -2.396772         2.201551
 H        -0.156868        -2.693828         3.696078
 H        -1.915127        -0.992439         3.080788
 H        -1.154118        -1.004764         0.236895
 H        -1.808666         0.446343         0.837177
 H         0.303490         1.307757        -1.153646
 H         1.744315         1.770287        -0.100879
 H         2.120668         0.138982         2.155503
 H         1.065650         1.390630         2.777626
