19
Iteration:  2172
 O         0.214619        -0.145752         4.532936
 C         0.371545        -0.449754         3.157421
 C         0.310446        -1.796275         2.592094
 C        -0.862820        -0.959967         2.418267
 C        -1.049240        -0.042522         1.206388
 C         0.384552         0.447439         0.947352
 C         0.920948         0.910061        -0.284348
 O         1.219387        -0.543245         0.095386
 C         0.946830         0.682405         2.307368
 H         1.093652         0.171115         4.812162
 H         0.963568        -2.164611         1.837214
 H         0.179255        -2.552494         3.303552
 H        -1.700974        -1.231720         3.126998
 H        -1.291723        -0.620217         0.287659
 H        -1.691248         0.867176         1.542154
 H         0.312466         0.821425        -1.190172
 H         1.821714         1.496244        -0.244427
 H         2.072589         0.501427         2.345977
 H         0.528463         1.653713         2.717957
