19
Iteration:  4674charge 0 multiplicity 1
 O         0.269557        -0.059559         4.624511
 C         0.346708        -0.388522         3.224680
 C         0.422907        -1.909222         2.885220
 C        -0.854494        -1.025518         2.503062
 C        -0.983027        -0.499808         1.064926
 C         0.415404         0.251867         0.920184
 C         0.583321         1.058318        -0.391923
 O         1.325941        -0.161958        -0.090618
 C         0.928035         0.717674         2.273652
 H         1.130494         0.148819         5.056461
 H         1.109012        -2.263421         2.125968
 H         0.348353        -2.651233         3.649095
 H        -1.695172        -1.179035         3.193087
 H        -0.886439        -1.234761         0.203279
 H        -1.822120         0.125438         0.868773
 H        -0.297581         1.038592        -1.041079
 H         1.152092         2.089990        -0.358661
 H         2.022081         0.643018         2.175083
 H         0.610795         1.794096         2.554238
