19
Iteration:  2042charge 0 multiplicity 1
 O         0.079043         0.068056         4.523083
 C         0.344595        -0.448490         3.253883
 C         0.134677        -1.977465         2.951217
 C        -0.879990        -0.900970         2.495271
 C        -0.918556        -0.250753         1.086657
 C         0.469686         0.215183         0.915823
 C         0.785779         1.141776        -0.186009
 O         1.256990        -0.190192        -0.207935
 C         1.231442         0.298876         2.249366
 H         1.016733         0.159950         4.872815
 H         0.755123        -2.475126         2.252508
 H        -0.328477        -2.534105         3.729626
 H        -1.744211        -0.870349         3.164153
 H        -1.239747        -0.911584         0.255265
 H        -1.611127         0.570616         0.990376
 H        -0.015939         1.475502        -1.017592
 H         1.549355         1.950137        -0.296930
 H         2.252560        -0.173362         1.963289
 H         1.476380         1.251285         2.572069
