19
Iteration:  2873charge 0 multiplicity 1
 O         0.095398        -0.020924         4.665376
 C         0.403115        -0.425342         3.214056
 C         0.233714        -1.833308         2.820580
 C        -0.892139        -0.933309         2.488362
 C        -1.026781        -0.297620         1.165328
 C         0.387512         0.371544         0.900393
 C         0.824858         1.029949        -0.342360
 O         1.291644        -0.293836        -0.189450
 C         1.148850         0.472197         2.258171
 H         0.521090        -0.671033         5.298519
 H         1.088079        -2.095923         2.103174
 H         0.195697        -2.506912         3.724816
 H        -1.700631        -1.015512         3.180905
 H        -1.154623        -1.111307         0.347156
 H        -1.849725         0.414067         1.247319
 H         0.308790         1.366023        -1.290132
 H         1.694257         1.828470        -0.231746
 H         2.170867         0.062360         2.128075
 H         1.081803         1.584527         2.543613
