19
Iteration:  2960charge 0 multiplicity 1
 O         0.312508        -0.363746         4.543940
 C         0.359322        -0.278736         3.122400
 C         0.344387        -1.685095         2.679471
 C        -0.988516        -0.781875         2.521786
 C        -1.104542        -0.229483         1.108741
 C         0.342414         0.312690         0.929845
 C         0.935014         0.855827        -0.292926
 O         1.296467        -0.414520         0.154671
 C         0.914622         0.736625         2.242035
 H         1.260394        -0.283884         4.864936
 H         0.683452        -1.964479         1.661687
 H         0.280573        -2.499402         3.485698
 H        -1.917588        -1.051044         3.130724
 H        -1.450556        -0.871284         0.197886
 H        -1.954169         0.524959         1.101833
 H         0.628186         0.868485        -1.311389
 H         1.781809         1.582445        -0.315385
 H         2.012616         0.587882         2.360379
 H         0.801985         1.814193         2.642484
