19
Iteration:  3003charge 0 multiplicity 1
 O         0.428446        -0.067854         4.560582
 C         0.291739        -0.525730         3.220076
 C         0.176061        -1.902237         2.708462
 C        -0.961438        -0.865611         2.464535
 C        -0.982534        -0.185114         1.090212
 C         0.426603         0.399361         0.906285
 C         0.879359         0.935788        -0.483594
 O         1.357588        -0.394137         0.085666
 C         0.850467         0.653254         2.438754
 H         0.961334        -0.739394         5.062763
 H         0.860592        -2.071792         1.831181
 H        -0.106273        -2.720677         3.451891
 H        -1.914400        -0.876847         3.093720
 H        -1.581048        -0.762106         0.267031
 H        -1.670448         0.737750         1.054385
 H         0.118214         1.041822        -1.213010
 H         1.763983         1.614082        -0.583482
 H         1.940738         0.864243         2.386116
 H         0.402560         1.608084         2.901719
