19
Iteration:  2623
 O         0.166688        -0.220121         4.636524
 C         0.291297        -0.335556         3.225607
 C         0.092022        -1.794288         2.901668
 C        -0.904461        -0.744959         2.568058
 C        -0.858749        -0.387508         1.069802
 C         0.452000         0.253735         0.857849
 C         0.725137         1.121697        -0.303285
 O         1.306167        -0.282714        -0.127628
 C         1.202339         0.510046         2.185882
 H         1.062653        -0.422089         4.994905
 H         0.492995        -2.483964         2.159244
 H        -0.069851        -2.355594         3.907133
 H        -1.864725        -0.641997         3.054050
 H        -0.854669        -1.254023         0.379398
 H        -1.678092         0.285692         0.723238
 H         0.147608         1.246299        -1.187476
 H         1.460773         1.931694        -0.274728
 H         2.242211         0.176651         2.255557
 H         1.002401         1.508863         2.504501
