19
Iteration:  1589
 O         0.335167        -0.124390         4.607668
 C         0.181209        -0.366480         3.247587
 C         0.115057        -1.868061         2.821427
 C        -1.061209        -0.802633         2.549072
 C        -0.926070        -0.361186         1.087384
 C         0.522144         0.244384         0.923179
 C         0.897962         1.076486        -0.235347
 O         1.297119        -0.305937        -0.228466
 C         1.055147         0.565554         2.304604
 H         1.272557        -0.195139         4.736515
 H         0.626912        -2.060998         1.874064
 H         0.057897        -2.616863         3.542740
 H        -2.076906        -1.081937         2.936264
 H        -1.103452        -1.155844         0.366514
 H        -1.673935         0.548377         1.020033
 H         0.138549         1.261858        -0.953125
 H         1.762905         1.689869        -0.181584
 H         2.127785         0.398856         2.468253
 H         0.844362         1.662308         2.473068
