19
Iteration:  3063
 O         0.216607         0.092452         4.625704
 C         0.290405        -0.433400         3.305719
 C         0.305341        -1.847837         2.719334
 C        -0.953642        -0.897674         2.468683
 C        -0.935075        -0.281843         1.100556
 C         0.485255         0.279166         0.954363
 C         0.864317         1.045042        -0.246884
 O         1.151690        -0.314065        -0.245806
 C         1.128956         0.430347         2.356729
 H        -0.097561        -0.510344         5.326066
 H         0.971374        -2.125481         1.945554
 H         0.030611        -2.747600         3.230811
 H        -1.859155        -1.171340         2.978734
 H        -1.055707        -1.129699         0.507184
 H        -1.700097         0.428028         0.934204
 H         0.037401         1.533867        -0.856529
 H         1.846850         1.520605        -0.125699
 H         2.186731         0.185219         2.234911
 H         1.024480         1.469099         2.566029
