19
Iteration:  3784charge 0 multiplicity 1
 O         0.287200        -0.133407         4.600514
 C         0.321435        -0.402386         3.248474
 C         0.449472        -1.779782         2.758912
 C        -0.904829        -0.921397         2.544028
 C        -1.004425        -0.265735         1.149586
 C         0.387318         0.199778         0.878556
 C         0.754548         0.988199        -0.315477
 O         1.294250        -0.351380        -0.113969
 C         1.003556         0.654180         2.281732
 H        -0.571526        -0.420765         4.857226
 H         0.885426        -1.752084         1.811355
 H         0.458983        -2.529265         3.514722
 H        -1.743769        -0.682165         3.167459
 H        -1.637558        -0.948048         0.513447
 H        -1.672249         0.620390         1.222478
 H         0.069979         1.072795        -1.181920
 H         1.532044         1.712092        -0.091442
 H         2.090456         0.732645         2.289796
 H         0.716497         1.690564         2.288129
