19
Iteration:  3967charge 0 multiplicity 1
 O         0.355876         0.009297         4.568217
 C         0.312864        -0.401057         3.194725
 C         0.320395        -1.882132         2.905156
 C        -0.928152        -0.968987         2.574205
 C        -1.010552        -0.429147         1.142389
 C         0.312133         0.233655         0.911712
 C         0.721144         1.145931        -0.195665
 O         1.379855        -0.219810        -0.201586
 C         1.064679         0.522336         2.114409
 H        -0.552779        -0.012701         4.983902
 H         0.988592        -2.392760         2.058560
 H         0.145593        -2.569655         3.756919
 H        -1.733799        -1.271745         3.176472
 H        -1.149990        -1.104289         0.374930
 H        -1.851726         0.188330         1.086244
 H         0.051683         1.341537        -1.055989
 H         1.338797         2.003160         0.108686
 H         2.161247         0.395938         2.164050
 H         0.838479         1.570638         2.435913
