19
Iteration:  3424charge 0 multiplicity 1
 O         0.188714         0.041629         4.622072
 C         0.232264        -0.400159         3.241235
 C         0.366401        -1.914977         2.819098
 C        -0.949850        -0.973393         2.415766
 C        -1.038496        -0.098258         1.146273
 C         0.474174         0.291387         0.915147
 C         0.796082         1.031387        -0.259670
 O         1.272695        -0.441508        -0.142074
 C         1.106094         0.506684         2.254881
 H         0.871212        -0.474636         5.101176
 H         1.215471        -2.134598         2.171409
 H        -0.108015        -2.726180         3.489032
 H        -1.833342        -1.283768         2.879749
 H        -1.470110        -0.412065         0.176798
 H        -1.571666         0.877423         1.463690
 H         0.182988         1.143962        -1.123077
 H         1.609473         1.834132        -0.268342
 H         2.163923         0.088039         2.160569
 H         1.216975         1.595797         2.600022
