19
Iteration:   666charge 0 multiplicity 1
 O         0.241188         0.054643         4.620078
 C         0.288833        -0.377217         3.220389
 C         0.213224        -1.841230         2.809761
 C        -0.939491        -0.889994         2.450381
 C        -0.929936        -0.224878         1.062935
 C         0.521687         0.263360         0.967869
 C         0.889154         1.081196        -0.204754
 O         1.118482        -0.395065        -0.207125
 C         1.172755         0.396662         2.311101
 H        -0.475832        -0.524779         4.953926
 H         0.971547        -2.123453         2.066202
 H        -0.088007        -2.519355         3.539623
 H        -1.760783        -0.933452         3.116178
 H        -1.090899        -0.975758         0.298587
 H        -1.742538         0.583476         0.840162
 H         0.036178         1.351506        -0.776091
 H         1.748254         1.791210        -0.304624
 H         2.175960        -0.051771         2.132853
 H         1.382542         1.381024         2.836135
