19
Iteration:  3129
 O         0.348008         0.101672         4.544834
 C         0.390994        -0.453338         3.195203
 C         0.041413        -1.968051         2.910498
 C        -0.988841        -0.878986         2.523971
 C        -0.918223        -0.442231         1.067650
 C         0.427424         0.265649         0.889652
 C         0.768461         1.144447        -0.258504
 O         1.326411        -0.148233        -0.109106
 C         1.134681         0.394684         2.201987
 H        -0.083358        -0.508507         5.157017
 H         0.508676        -2.566484         2.144690
 H        -0.212565        -2.620945         3.781582
 H        -1.891428        -0.715952         3.245508
 H        -0.968621        -1.305857         0.438602
 H        -1.635925         0.373321         0.847634
 H         0.009731         1.460151        -1.054115
 H         1.485781         2.009263        -0.088153
 H         2.147759        -0.048597         2.236522
 H         1.093822         1.357387         2.671545
