19
Iteration:  1945
 O         0.400587        -0.007447         4.457999
 C         0.332214        -0.448076         3.209190
 C         0.035011        -1.894687         2.853053
 C        -1.101982        -0.867999         2.606166
 C        -0.975718        -0.406098         1.084243
 C         0.452261         0.267002         0.922701
 C         0.831922         1.078033        -0.207305
 O         1.481224        -0.193572        -0.105213
 C         0.990985         0.492313         2.235363
 H         0.786896        -0.654339         5.113315
 H         0.357713        -2.450129         2.057053
 H        -0.252588        -2.464219         3.698515
 H        -2.046036        -0.776774         3.050245
 H        -1.235373        -1.109920         0.263875
 H        -1.749668         0.397589         0.983872
 H         0.249868         1.325977        -1.174011
 H         1.522332         1.928497        -0.145096
 H         2.131018         0.234126         2.310073
 H         0.867845         1.568268         2.478610
