19
Iteration:  2973
 O         0.399008        -0.288596         4.569999
 C         0.236863        -0.315556         3.169160
 C         0.199973        -1.730703         2.576946
 C        -0.967335        -0.845385         2.475930
 C        -1.063381        -0.241685         1.096080
 C         0.358598         0.357386         0.933502
 C         0.880932         0.893368        -0.300297
 O         1.374790        -0.518272         0.146600
 C         0.953545         0.823912         2.324158
 H         1.334055        -0.345704         4.720037
 H         0.814596        -2.034157         1.731888
 H         0.247177        -2.435316         3.395825
 H        -1.890021        -0.940663         3.126340
 H        -1.240109        -1.035686         0.339707
 H        -1.729346         0.633503         1.037732
 H         0.052759         0.986638        -1.029162
 H         1.665451         1.631931        -0.128723
 H         2.032429         0.719516         2.108250
 H         0.648417         1.846182         2.658890
