19
Iteration:  3887
 O         0.211633         0.077460         4.578194
 C         0.355922        -0.427781         3.186404
 C         0.258104        -1.886761         3.014334
 C        -0.887305        -0.909786         2.562291
 C        -0.953366        -0.487739         1.108476
 C         0.412365         0.205952         0.855709
 C         0.666881         1.148501        -0.212873
 O         1.309200        -0.094484        -0.286933
 C         1.100907         0.399766         2.207815
 H         0.776497        -0.385589         5.280276
 H         0.966979        -2.257760         2.281255
 H        -0.024691        -2.704502         3.766288
 H        -1.878931        -1.070263         3.090926
 H        -0.822740        -1.388381         0.615181
 H        -1.747694         0.134899         0.770581
 H        -0.080984         1.455214        -0.975740
 H         1.375168         2.034788        -0.064844
 H         2.098989        -0.012849         2.108771
 H         1.066194         1.397974         2.517007
