19
Iteration:  1383charge 0 multiplicity 1
 O         0.125641        -0.050472         4.581703
 C         0.377503        -0.411401         3.232593
 C         0.206000        -1.869007         2.810007
 C        -0.924897        -0.736874         2.522281
 C        -0.933516        -0.345453         1.052156
 C         0.472561         0.264350         0.942856
 C         0.876995         1.106969        -0.210746
 O         1.157964        -0.324232        -0.150635
 C         1.187840         0.484238         2.267154
 H         0.768077        -0.572283         5.163006
 H         0.523301        -2.424229         1.976533
 H        -0.241820        -2.522477         3.554534
 H        -1.826337        -0.952661         3.189455
 H        -1.070135        -1.120625         0.266284
 H        -1.715282         0.382286         0.849993
 H         0.222803         1.327732        -1.134716
 H         1.879452         1.597184        -0.258340
 H         2.324093         0.347921         2.258917
 H         0.948437         1.448030         2.566219
