19
Iteration:  4706
 O         0.333919         0.039773         4.560888
 C         0.358795        -0.387246         3.206400
 C         0.508499        -1.869899         2.796995
 C        -0.846031        -1.136372         2.548785
 C        -1.025216        -0.496001         1.110037
 C         0.338260         0.307770         0.889006
 C         0.704413         1.027913        -0.385690
 O         1.270947        -0.202750        -0.054719
 C         0.868463         0.730637         2.316533
 H         0.047339        -0.689684         5.135869
 H         1.122352        -2.065472         1.915310
 H         0.608131        -2.614336         3.557990
 H        -1.727717        -1.255747         3.194632
 H        -1.209980        -1.200327         0.206738
 H        -1.856175         0.180134         1.212105
 H         0.055202         1.166885        -1.262433
 H         1.344155         1.987346        -0.141255
 H         1.963376         0.612560         2.295702
 H         0.600245         1.794432         2.724655
