19
Iteration:   127charge 0 multiplicity 1
 O         0.060952        -0.175297         4.715008
 C         0.283729        -0.299494         3.316249
 C         0.400547        -1.692661         2.781257
 C        -0.868068        -0.877998         2.453243
 C        -0.952763        -0.100058         1.155437
 C         0.438046         0.240371         0.804254
 C         0.950269         0.954218        -0.314154
 O         1.054624        -0.492369        -0.198511
 C         1.135440         0.531669         2.308489
 H         0.854687        -0.538042         5.120296
 H         1.270526        -1.850809         2.180868
 H         0.173470        -2.443621         3.516215
 H        -1.746088        -1.260225         2.917380
 H        -1.444118        -0.623091         0.278240
 H        -1.700117         0.841835         1.201003
 H         0.413036         1.523856        -1.215634
 H         2.006483         1.405725        -0.167945
 H         2.216567         0.251820         2.228890
 H         0.949241         1.717128         2.345471
