19
Iteration:  1373
 O         0.062122        -0.002545         4.547803
 C         0.426861        -0.484768         3.261135
 C         0.170089        -1.866463         2.790973
 C        -0.852995        -0.817260         2.500633
 C        -0.919953        -0.288200         1.123880
 C         0.480360         0.232117         0.937104
 C         0.930803         1.074621        -0.207905
 O         1.128856        -0.319855        -0.208040
 C         1.128191         0.467393         2.284058
 H         0.864907         0.037787         5.156201
 H         0.686008        -2.101534         1.913838
 H        -0.258989        -2.595007         3.452797
 H        -1.762486        -0.784252         3.201615
 H        -0.995100        -1.216107         0.455721
 H        -1.722725         0.433787         1.041721
 H         0.109260         1.536265        -0.858436
 H         1.797607         1.829211        -0.071119
 H         2.253505         0.211866         2.071333
 H         1.108927         1.418477         2.640756
