19
Iteration:  2603
 O         0.212574        -0.064038         4.565599
 C         0.301362        -0.447476         3.195776
 C         0.155955        -1.842487         2.811479
 C        -0.976549        -0.847254         2.558330
 C        -1.006064        -0.306616         1.147805
 C         0.423417         0.294390         0.897323
 C         0.853346         1.010980        -0.321348
 O         1.378612        -0.264827        -0.109397
 C         1.100116         0.505156         2.295218
 H         1.056727        -0.274171         4.946260
 H         0.720684        -2.150257         1.928253
 H         0.119589        -2.610849         3.656890
 H        -1.829043        -0.958485         3.115369
 H        -1.304343        -1.008092         0.330655
 H        -1.850394         0.532706         1.153727
 H         0.070956         1.145081        -1.055842
 H         1.541705         1.782316        -0.306785
 H         2.164851         0.230317         2.045458
 H         1.135860         1.597648         2.596871
