19
Iteration:  2718
 O         0.216896         0.234939         4.464616
 C         0.308383        -0.430795         3.252248
 C         0.119144        -1.945253         3.021730
 C        -0.924417        -0.982198         2.551619
 C        -0.881607        -0.434980         1.062855
 C         0.499074         0.225106         0.924734
 C         0.816533         1.305287        -0.139009
 O         1.198410        -0.124383        -0.318929
 C         1.225278         0.136818         2.258738
 H        -0.504692        -0.056090         5.010044
 H         0.753299        -2.442028         2.330441
 H        -0.188133        -2.738663         3.738459
 H        -1.943078        -0.960600         3.144413
 H        -1.092381        -1.179680         0.261673
 H        -1.730561         0.284070         1.038930
 H         0.180431         1.787079        -0.918289
 H         1.867724         1.871455        -0.026335
 H         2.069352        -0.560941         2.049410
 H         1.502874         1.177681         2.560263
