19
Iteration:  2333
 O         0.218301         0.110898         4.600823
 C         0.314047        -0.475890         3.302297
 C         0.107237        -1.893759         2.858354
 C        -0.912043        -0.880972         2.486853
 C        -0.933673        -0.383115         1.021862
 C         0.464977         0.221713         0.876667
 C         0.934194         1.177764        -0.118661
 O         1.142187        -0.244359        -0.273473
 C         1.126087         0.356003         2.269811
 H         1.125799        -0.072254         4.992660
 H         1.023121        -2.165940         2.287998
 H        -0.104005        -2.612741         3.646645
 H        -1.920450        -0.952125         3.031860
 H        -1.117453        -1.261683         0.338701
 H        -1.543068         0.512269         0.776386
 H         0.152021         1.512022        -0.895241
 H         1.845891         1.757018         0.183981
 H         2.167396         0.048805         2.318086
 H         0.889309         1.337974         2.433346
