19
Iteration:   245charge 0 multiplicity 1
 O         0.267761        -0.150714         4.628641
 C         0.363407        -0.382939         3.270069
 C         0.119612        -1.823939         2.888300
 C        -0.925602        -0.759132         2.507907
 C        -0.866555        -0.375879         1.032890
 C         0.430167         0.312458         0.926176
 C         0.938994         0.988700        -0.349887
 O         1.157022        -0.355087        -0.153272
 C         1.060891         0.695618         2.263082
 H         0.706072        -0.918829         5.095999
 H         0.618056        -2.451154         2.100864
 H        -0.286953        -2.445980         3.683882
 H        -1.893969        -0.818581         2.985238
 H        -0.951554        -1.201659         0.358472
 H        -1.709109         0.204283         0.703113
 H         0.101524         1.209432        -1.056336
 H         1.830092         1.672313        -0.165891
 H         2.162708         0.758332         2.354193
 H         0.681733         1.652484         2.595759
