19
Iteration:   358
 O         0.218603        -0.059465         4.647993
 C         0.256963        -0.336068         3.277761
 C         0.163325        -1.871093         2.858429
 C        -0.914041        -0.767581         2.548319
 C        -0.944192        -0.382897         1.136170
 C         0.458948         0.260918         0.854460
 C         0.913954         1.065398        -0.279410
 O         1.258562        -0.299282        -0.252749
 C         1.077965         0.459331         2.218622
 H         0.764285        -0.703111         5.140294
 H         0.808036        -2.183043         2.080515
 H         0.024151        -2.485935         3.748925
 H        -1.874612        -0.709312         3.050949
 H        -1.068070        -1.234528         0.507145
 H        -1.785108         0.302391         0.953679
 H         0.144073         1.297418        -1.163063
 H         1.738398         1.790488        -0.071387
 H         2.155617         0.411383         2.308905
 H         0.807199         1.544140         2.467791
