19
Iteration:   405
 O         0.533776         0.034915         4.460002
 C         0.296646        -0.445920         3.175329
 C         0.050623        -1.904213         2.820279
 C        -0.991379        -0.889361         2.467312
 C        -0.922564        -0.289445         1.073958
 C         0.425446         0.353614         0.922385
 C         0.748841         0.966531        -0.337735
 O         1.394917        -0.292235         0.072779
 C         0.932397         0.547767         2.333565
 H         0.061805        -0.599485         5.077013
 H         0.651233        -2.393488         1.961185
 H        -0.367437        -2.537808         3.611976
 H        -1.873544        -0.995811         3.091298
 H        -1.117714        -0.967331         0.232218
 H        -1.638901         0.509515         0.906916
 H        -0.010538         0.832106        -1.123400
 H         1.523239         1.821381        -0.324910
 H         2.061178         0.292529         2.329182
 H         0.892650         1.519269         2.976824
