19
Iteration:   331
 O         0.099505        -0.027280         4.553082
 C         0.337412        -0.365540         3.225046
 C         0.171871        -1.923650         2.885879
 C        -0.839962        -0.915485         2.457026
 C        -0.886951        -0.307288         1.128557
 C         0.484254         0.331329         0.913151
 C         0.893527         1.073011        -0.277375
 O         1.091528        -0.357240        -0.216592
 C         1.172962         0.473083         2.330474
 H         0.857246         0.425082         4.971105
 H         0.886490        -2.436501         2.171836
 H        -0.027832        -2.396770         3.828520
 H        -1.753670        -0.720934         3.021613
 H        -1.121644        -1.054095         0.270653
 H        -1.633711         0.516558         1.222856
 H         0.133534         1.431739        -0.938361
 H         1.742042         1.781070        -0.132745
 H         2.235715         0.165168         2.299037
 H         1.122260         1.473022         2.665033
