19
Iteration:  3401
 O         0.160579        -0.086715         4.582895
 C         0.355826        -0.408082         3.243974
 C         0.282702        -1.841983         2.667378
 C        -0.892540        -0.851971         2.500189
 C        -0.979207        -0.241403         1.158133
 C         0.455856         0.411008         0.967402
 C         0.934870         0.943968        -0.397313
 O         1.113466        -0.388395        -0.024638
 C         1.057306         0.510837         2.356590
 H         1.052179         0.135327         4.973028
 H         0.868169        -2.066867         1.772099
 H         0.156683        -2.566152         3.511387
 H        -1.831017        -0.998184         2.939566
 H        -1.229717        -0.893724         0.276660
 H        -1.739133         0.575895         1.205858
 H         0.316544         1.016675        -1.315803
 H         1.839885         1.615505        -0.574298
 H         2.178748         0.354693         2.313072
 H         0.920079         1.579339         2.740682
