19
Iteration:  3798
 O         0.297207        -0.123394         4.631256
 C         0.350607        -0.306637         3.195956
 C         0.312630        -1.814921         2.817484
 C        -0.886024        -0.929791         2.591815
 C        -1.016941        -0.339246         1.182414
 C         0.394578         0.284127         0.872925
 C         0.769397         1.009703        -0.339641
 O         1.331967        -0.294975        -0.167650
 C         1.006398         0.570244         2.238214
 H        -0.643969        -0.201185         4.982067
 H         0.837362        -2.164307         1.904444
 H         0.452528        -2.483130         3.663920
 H        -1.752033        -1.254442         3.170898
 H        -1.230119        -0.920201         0.348782
 H        -1.727272         0.478791         1.206819
 H         0.037623         1.138447        -1.261233
 H         1.400792         1.904963        -0.292255
 H         2.064872         0.391396         2.232701
 H         0.841695         1.544145         2.640049
