19
Iteration:  1899charge 0 multiplicity 1
 O         0.208504        -0.206242         4.636359
 C         0.284363        -0.337896         3.193214
 C         0.234677        -1.786560         2.759425
 C        -0.925792        -0.892946         2.449617
 C        -0.935282        -0.196783         1.111555
 C         0.469927         0.377835         0.955032
 C         0.889327         0.919040        -0.360574
 O         1.217791        -0.394762        -0.058203
 C         1.033523         0.635643         2.334346
 H         1.023176        -0.658909         4.927384
 H         0.935745        -2.102584         1.975513
 H         0.139984        -2.360724         3.679189
 H        -1.899784        -1.036672         3.004221
 H        -1.175981        -0.956165         0.345574
 H        -1.692214         0.548128         1.038445
 H         0.012948         1.239940        -1.118780
 H         1.604252         1.711687        -0.646621
 H         2.217090         0.397394         2.230407
 H         0.905548         1.633738         2.731414
