19
Iteration:   350charge 0 multiplicity 1
 O         0.136652        -0.053564         4.624300
 C         0.370279        -0.428269         3.285628
 C         0.178121        -1.822212         2.925519
 C        -0.978967        -0.828611         2.582795
 C        -0.970600        -0.348160         1.065971
 C         0.499042         0.258064         0.843151
 C         0.908386         1.073050        -0.257863
 O         1.183592        -0.311108        -0.260030
 C         1.154173         0.532032         2.237840
 H         0.913196        -0.461416         5.101014
 H         0.698338        -2.261241         2.003410
 H         0.005802        -2.562048         3.725642
 H        -1.854598        -1.008211         3.157636
 H        -0.869434        -1.203736         0.397674
 H        -1.734491         0.394723         0.862329
 H         0.294443         1.434903        -0.974530
 H         1.856611         1.661443        -0.313077
 H         2.282933         0.431598         2.209592
 H         0.854273         1.603970         2.527205
