19
Iteration:  3639
 O         0.294023        -0.092441         4.548349
 C         0.276731        -0.424220         3.193467
 C         0.220304        -1.853626         2.849719
 C        -0.887803        -0.955929         2.480786
 C        -0.906449        -0.352924         1.113082
 C         0.409301         0.348550         0.924899
 C         0.682131         1.052922        -0.329983
 O         1.297258        -0.288336        -0.001330
 C         1.093623         0.508999         2.256423
 H         0.292606         0.912314         4.607020
 H         0.991455        -2.247617         2.091719
 H        -0.124639        -2.471355         3.671408
 H        -1.757907        -1.041416         3.094014
 H        -1.224680        -0.945414         0.168119
 H        -1.503382         0.577196         1.098971
 H         0.037657         1.160692        -1.189583
 H         1.634625         1.648521        -0.331295
 H         2.200671         0.509113         2.246127
 H         0.846683         1.519670         2.658997
