19
Iteration:   652
 O         0.243921         0.022542         4.594479
 C         0.201122        -0.358535         3.278425
 C         0.215800        -1.808981         2.802910
 C        -0.906409        -0.812472         2.448079
 C        -0.912185        -0.276671         1.074724
 C         0.528026         0.243331         0.897196
 C         0.783473         1.092078        -0.232333
 O         1.134314        -0.359440        -0.190206
 C         1.286136         0.323504         2.382609
 H        -0.544635        -0.214700         5.151586
 H         0.945390        -2.116206         2.016412
 H         0.099297        -2.653836         3.563153
 H        -1.928389        -1.155792         2.683683
 H        -1.290846        -0.938972         0.170481
 H        -1.547223         0.647475         1.193954
 H         0.007874         1.504130        -0.985876
 H         1.834634         1.561050        -0.297273
 H         2.227102        -0.205450         2.576833
 H         1.299983         1.562280         2.363467
