19
Iteration:   895
 O         0.413894        -0.042708         4.649265
 C         0.272789        -0.479927         3.263816
 C        -0.030652        -1.933186         2.796224
 C        -1.006012        -0.817816         2.479275
 C        -0.904702        -0.267614         1.108350
 C         0.489620         0.239801         0.899352
 C         0.742616         1.044042        -0.379606
 O         1.419132        -0.241060        -0.052351
 C         1.034748         0.460239         2.302385
 H         1.384318         0.046355         4.678902
 H         0.466947        -2.452835         2.027892
 H        -0.324772        -2.379199         3.702211
 H        -2.058025        -0.662557         2.935975
 H        -1.092043        -1.081941         0.443004
 H        -1.494325         0.560439         0.739650
 H        -0.061414         1.153512        -1.142835
 H         1.424026         1.880343        -0.514060
 H         2.049718         0.432808         2.252043
 H         0.710213         1.517124         2.422329
