19
Iteration:  1974charge 0 multiplicity 1
 O         0.352092         0.065439         4.553525
 C         0.318531        -0.467509         3.240430
 C         0.049611        -1.911829         2.977423
 C        -0.975634        -0.894462         2.448554
 C        -0.951495        -0.408676         0.993671
 C         0.430515         0.282569         0.923504
 C         0.879178         1.175297        -0.189393
 O         1.297820        -0.178369        -0.167345
 C         1.071859         0.364415         2.238356
 H         0.756063        -0.579921         5.144046
 H         0.770019        -2.609955         2.483454
 H        -0.531151        -2.328208         3.837192
 H        -1.939904        -0.745502         2.957395
 H        -1.135288        -1.122615         0.189298
 H        -1.807184         0.218116         0.777750
 H         0.125291         1.494508        -1.006622
 H         1.719476         1.869048        -0.083260
 H         2.126376        -0.018050         2.166379
 H         1.156514         1.384804         2.485192
