19
Iteration:  4692charge 0 multiplicity 1
 O         0.267014         0.019905         4.542661
 C         0.309877        -0.435378         3.230615
 C         0.439824        -1.809587         2.808388
 C        -0.805014        -1.052074         2.561288
 C        -0.879740        -0.510722         1.223474
 C         0.256165         0.374588         0.900718
 C         0.656900         1.085521        -0.396823
 O         1.330640        -0.183546        -0.106856
 C         0.899461         0.581609         2.287703
 H         0.808909        -0.643568         5.064818
 H         0.971198        -2.094526         1.905423
 H         0.404702        -2.574419         3.673389
 H        -1.736883        -1.355947         3.009360
 H        -1.072968        -1.335123         0.475239
 H        -1.791675         0.166358         1.104656
 H         0.122664         0.818636        -1.345340
 H         1.321442         1.933307        -0.443180
 H         1.960155         0.814586         2.234656
 H         0.427874         1.515922         2.688827
