19
Iteration:  2364
 O         0.089157         0.075979         4.430854
 C         0.365494        -0.484009         3.163119
 C         0.107346        -1.914922         2.939390
 C        -0.963307        -0.981520         2.532869
 C        -0.983230        -0.257279         1.192947
 C         0.464236         0.328558         0.950512
 C         0.842082         1.092596        -0.246255
 O         1.260095        -0.188815        -0.203308
 C         1.322577         0.326224         2.253481
 H         0.714555        -0.132252         5.107711
 H         0.983736        -2.487983         2.358167
 H        -0.096922        -2.517521         3.848800
 H        -1.915824        -1.153982         3.210728
 H        -1.404457        -0.933327         0.421913
 H        -1.573912         0.642571         1.287740
 H         0.078124         1.331714        -1.112955
 H         1.522467         2.027919        -0.135768
 H         2.284543        -0.201435         2.093571
 H         1.456690         1.344347         2.559635
