19
Iteration:  2168charge 0 multiplicity 1
 O         0.229179        -0.141583         4.561376
 C         0.346837        -0.451372         3.142955
 C         0.307879        -1.820978         2.593585
 C        -0.865638        -0.913848         2.388312
 C        -1.028052        -0.039910         1.195065
 C         0.379251         0.439488         0.951372
 C         0.875640         0.917379        -0.285717
 O         1.248061        -0.528874         0.113727
 C         0.960949         0.648932         2.288977
 H         1.094803         0.149367         4.889649
 H         1.069661        -2.208574         1.879385
 H         0.174644        -2.570995         3.432461
 H        -1.650866        -1.219925         3.004314
 H        -1.456383        -0.573989         0.304422
 H        -1.653720         0.842370         1.415565
 H         0.231669         0.748124        -1.115431
 H         1.810881         1.437206        -0.364784
 H         2.023426         0.556671         2.336737
 H         0.498323         1.626862         2.848239
