19
Iteration:  1391
 O         0.204429        -0.091630         4.601788
 C         0.309941        -0.373377         3.176794
 C         0.140623        -1.848272         2.848547
 C        -0.938670        -0.781266         2.528487
 C        -0.952698        -0.329104         1.057202
 C         0.466468         0.313692         0.884151
 C         0.871779         1.092254        -0.263193
 O         1.212591        -0.343675        -0.122930
 C         1.189032         0.481454         2.303063
 H         0.647091        -0.850805         5.084202
 H         0.762302        -2.376935         2.059813
 H         0.030006        -2.525856         3.749812
 H        -1.911103        -0.817010         2.997408
 H        -1.067218        -1.098802         0.358433
 H        -1.691068         0.433224         0.737451
 H         0.118894         1.298883        -1.061443
 H         1.714038         1.700937        -0.145745
 H         2.243025         0.353243         2.326189
 H         0.946233         1.610486         2.535334
