19
Iteration:  1008charge 0 multiplicity 1
 O         0.135752         0.077980         4.482988
 C         0.340734        -0.442717         3.281817
 C         0.243184        -1.927418         2.781645
 C        -0.897047        -0.964189         2.447019
 C        -1.009147        -0.131049         1.149290
 C         0.449572         0.396578         0.937678
 C         0.840106         1.011327        -0.291142
 O         1.222926        -0.348091        -0.084053
 C         1.195011         0.394537         2.309785
 H         0.496002        -0.538738         5.095115
 H         0.944389        -2.450509         2.054133
 H        -0.161687        -2.625068         3.650247
 H        -1.683132        -1.093990         3.100898
 H        -1.286283        -0.653996         0.259056
 H        -1.664343         0.797328         1.274451
 H         0.068596         1.165649        -1.046327
 H         1.461579         1.900884        -0.332815
 H         2.182373        -0.176628         2.137148
 H         1.455926         1.381665         2.752493
