19
Iteration:   850
 O         0.179038        -0.097101         4.588454
 C         0.340969        -0.363561         3.183621
 C         0.273422        -1.821968         2.755189
 C        -0.840949        -0.815133         2.532532
 C        -1.020616        -0.223974         1.116683
 C         0.431942         0.321470         0.892759
 C         0.936720         0.990366        -0.233327
 O         1.145050        -0.417866        -0.049926
 C         1.077574         0.558089         2.204344
 H         0.678071        -0.799713         5.000309
 H         0.813978        -2.145947         1.930138
 H         0.056912        -2.519095         3.585274
 H        -1.726388        -1.064137         3.080851
 H        -1.276918        -0.905592         0.289448
 H        -1.749961         0.545597         1.125855
 H         0.358292         1.195796        -1.125945
 H         1.771254         1.721265        -0.138541
 H         2.078437         0.356283         2.261899
 H         0.922089         1.536064         2.677008
