19
Iteration:  2786charge 0 multiplicity 1
 O         0.296514        -0.022782         4.563628
 C         0.303493        -0.451976         3.206230
 C        -0.015158        -1.875048         3.066023
 C        -1.009703        -0.836572         2.570294
 C        -0.976882        -0.570539         1.101230
 C         0.488460         0.297594         0.828468
 C         0.752178         1.211457        -0.223570
 O         1.416284        -0.036479        -0.236450
 C         1.222557         0.273244         2.172902
 H         0.180442         0.945498         4.670914
 H         0.491896        -2.461924         2.229806
 H        -0.312752        -2.528056         3.886715
 H        -1.780365        -0.901689         3.208316
 H        -0.886638        -1.519558         0.546861
 H        -1.723405        -0.010578         0.671894
 H        -0.123059         1.344785        -0.954683
 H         1.535553         2.072599         0.032638
 H         2.048690        -0.399288         2.119556
 H         1.498223         1.260588         2.414462
