19
Iteration:   670
 O         0.241135         0.062221         4.617988
 C         0.308419        -0.435832         3.198128
 C         0.200398        -1.823967         2.826674
 C        -0.933475        -0.890852         2.454543
 C        -0.945473        -0.204474         1.093388
 C         0.513659         0.276768         0.949184
 C         0.914137         1.045399        -0.209650
 O         1.128628        -0.372459        -0.202564
 C         1.164659         0.423532         2.308197
 H        -0.440141        -0.566444         4.947541
 H         0.854926        -2.169986         2.049091
 H        -0.124516        -2.586039         3.581090
 H        -1.793924        -0.954681         3.161956
 H        -0.939771        -0.934919         0.283792
 H        -1.731070         0.459892         0.895953
 H         0.079209         1.354324        -0.861323
 H         1.659136         1.786197        -0.167635
 H         2.119187        -0.061237         2.057802
 H         1.240526         1.378884         2.682325
