19
Iteration:  3777charge 0 multiplicity 1
 O         0.285147        -0.122256         4.607166
 C         0.369629        -0.387065         3.206017
 C         0.480075        -1.776785         2.712189
 C        -0.934521        -0.888981         2.515535
 C        -1.017245        -0.279297         1.174115
 C         0.418535         0.215687         0.897169
 C         0.798653         0.967256        -0.279153
 O         1.240111        -0.387971        -0.072325
 C         0.971183         0.688564         2.267527
 H        -0.530078        -0.466393         4.961956
 H         1.119792        -1.919992         1.766776
 H         0.254627        -2.582019         3.370853
 H        -1.838397        -1.054009         3.156646
 H        -1.567977        -0.891431         0.525896
 H        -1.509248         0.694929         1.124775
 H        -0.020030         1.058143        -1.108801
 H         1.516154         1.797655        -0.292642
 H         2.059139         0.753554         2.315288
 H         0.592121         1.716847         2.428410
