19
Iteration:  1272charge 0 multiplicity 1
 O         0.266094        -0.131238         4.656041
 C         0.312819        -0.364572         3.239745
 C         0.067782        -1.827629         2.842455
 C        -0.974611        -0.723033         2.593650
 C        -0.900916        -0.408080         1.030113
 C         0.462245         0.189850         0.870773
 C         0.821671         1.093633        -0.221912
 O         1.288972        -0.272705        -0.251211
 C         1.144436         0.544119         2.277671
 H         0.576884        -0.767151         5.270575
 H         0.593607        -2.293220         1.980049
 H        -0.137820        -2.479513         3.681378
 H        -1.891361        -0.554598         3.094872
 H        -0.967282        -1.334953         0.522892
 H        -1.588807         0.227252         0.456514
 H        -0.022853         1.409192        -0.946914
 H         1.632337         1.770708        -0.075342
 H         2.197152         0.303328         2.372347
 H         1.032865         1.557327         2.299024
