19
Iteration:  1660
 O         0.206301         0.090549         4.523553
 C         0.243004        -0.428388         3.248978
 C         0.093676        -1.983865         3.006304
 C        -0.965268        -0.942217         2.484075
 C        -0.907764        -0.274714         1.085310
 C         0.495364         0.370538         0.932595
 C         0.779884         1.156305        -0.279751
 O         1.286911        -0.192586        -0.247620
 C         1.252020         0.284556         2.281566
 H         0.552182        -0.508582         5.167553
 H         0.824457        -2.436574         2.262921
 H        -0.210992        -2.658994         3.853232
 H        -2.001557        -1.058363         2.889272
 H        -0.996682        -1.061678         0.309187
 H        -1.559123         0.528690         1.016434
 H        -0.202766         1.233521        -0.806607
 H         1.571300         1.914951        -0.289759
 H         2.247956        -0.316168         2.063388
 H         1.496702         1.247159         2.727459
