19
Iteration:   981
 O         0.147172         0.086116         4.543793
 C         0.273204        -0.453994         3.334920
 C         0.232474        -1.871668         2.899513
 C        -0.923420        -0.981216         2.434164
 C        -0.883889        -0.177798         1.139608
 C         0.563529         0.272553         0.885350
 C         0.858547         1.137007        -0.216247
 O         1.111542        -0.371268        -0.277173
 C         1.178790         0.389807         2.296108
 H         0.412331        -0.630501         5.092712
 H         0.929600        -2.377165         2.266401
 H        -0.063861        -2.537729         3.628995
 H        -1.953039        -1.247314         2.902149
 H        -1.216987        -0.687134         0.157868
 H        -1.341579         0.787915         1.178671
 H        -0.069089         1.483331        -0.823617
 H         1.794828         1.767086        -0.179705
 H         2.229551         0.204536         2.353180
 H         1.048055         1.448975         2.593374
