19
Iteration:  2479charge 0 multiplicity 1
 O         0.393902        -0.102881         4.541965
 C         0.247535        -0.403782         3.168941
 C         0.147549        -1.877438         2.698158
 C        -0.971386        -0.963646         2.442462
 C        -0.974450        -0.137967         1.174755
 C         0.470504         0.424153         0.927609
 C         0.864653         0.924888        -0.376125
 O         1.333735        -0.372819         0.120622
 C         0.921722         0.612064         2.297989
 H         1.126517        -0.480824         4.995627
 H         0.776927        -2.290179         1.942111
 H        -0.039046        -2.650192         3.377820
 H        -1.986415        -0.967102         2.928677
 H        -1.100153        -0.779399         0.241295
 H        -1.759179         0.743401         1.234298
 H         0.218845         0.798018        -1.227663
 H         1.753809         1.618242        -0.464312
 H         2.005583         0.603498         2.376573
 H         0.397066         1.500330         2.718892
