19
Iteration:  3923
 O         0.291096         0.147852         4.516226
 C         0.324884        -0.467879         3.264868
 C         0.237890        -1.930759         2.985440
 C        -0.910667        -1.055547         2.469672
 C        -0.831267        -0.352307         1.077752
 C         0.486438         0.313190         0.950126
 C         0.621136         1.122696        -0.230674
 O         1.185491        -0.160082        -0.261928
 C         1.130987         0.454104         2.267102
 H        -0.121069        -0.622789         5.020935
 H         1.043696        -2.384422         2.247908
 H         0.010646        -2.615605         3.906693
 H        -1.775900        -1.303642         2.996635
 H        -0.753982        -1.235321         0.465356
 H        -1.695169         0.120543         0.691006
 H        -0.299917         1.183800        -0.795528
 H         1.362571         1.930558        -0.352978
 H         2.175526         0.071840         2.331027
 H         1.222912         1.489748         2.724998
