19
Iteration:   280
 O         0.169661         0.066048         4.519048
 C         0.255577        -0.391610         3.228716
 C         0.255503        -1.913382         2.798819
 C        -0.976297        -0.951530         2.542896
 C        -1.000538        -0.196718         1.211199
 C         0.448820         0.256033         0.911977
 C         0.854491         0.996791        -0.259520
 O         1.321288        -0.296937        -0.096457
 C         1.129830         0.416912         2.211256
 H         1.054653         0.194104         4.964847
 H         0.832580        -2.267483         1.976372
 H        -0.121099        -2.663321         3.430572
 H        -1.934798        -1.378592         2.932514
 H        -1.298649        -0.786733         0.434098
 H        -1.482462         0.772808         1.267294
 H         0.130540         1.274710        -1.120064
 H         1.565936         1.777786        -0.179677
 H         2.147048         0.085242         2.013457
 H         1.144020         1.512237         2.500972
