19
Iteration:   586charge 0 multiplicity 1
 O         0.439736        -0.162542         4.555568
 C         0.283334        -0.396700         3.163254
 C         0.071024        -1.885088         2.924246
 C        -0.999858        -0.815389         2.464974
 C        -0.984276        -0.314063         1.044874
 C         0.432672         0.318093         0.917716
 C         0.912616         1.073057        -0.269644
 O         1.300244        -0.337209        -0.044861
 C         1.026489         0.546060         2.240575
 H         0.335452         0.796218         4.640136
 H         0.501501        -2.425218         2.083269
 H        -0.003175        -2.546448         3.835720
 H        -1.936607        -0.895460         3.029764
 H        -1.035576        -1.161045         0.258808
 H        -1.874723         0.371551         1.114977
 H         0.054004         1.219243        -0.996326
 H         1.738073         1.791720        -0.163499
 H         2.108104         0.343447         2.161861
 H         0.883474         1.606789         2.755766
