19
Iteration:  2546
 O         0.149623        -0.185947         4.592014
 C         0.341296        -0.407294         3.197197
 C         0.395264        -1.736671         2.687341
 C        -0.857109        -0.963735         2.434598
 C        -1.071153        -0.088707         1.160370
 C         0.350196         0.387148         0.950859
 C         1.050019         0.901024        -0.397844
 O         1.108393        -0.489821         0.006738
 C         1.016349         0.703808         2.330100
 H         1.061690        -0.452141         4.924236
 H         0.998037        -2.122836         1.822788
 H         0.319389        -2.463335         3.524480
 H        -1.653586        -1.066855         3.300111
 H        -1.226375        -0.683063         0.209242
 H        -1.978060         0.621886         1.385189
 H         0.483044         1.075047        -1.258531
 H         1.869870         1.584465        -0.054151
 H         2.092432         0.467346         2.298688
 H         0.700676         1.721647         2.640977
