19
Iteration:    63
 O         0.456270        -0.102534         4.522300
 C         0.309149        -0.438430         3.146869
 C         0.078836        -1.900483         2.801447
 C        -0.998337        -0.886798         2.467471
 C        -1.051876        -0.197504         1.054351
 C         0.333370         0.427705         0.952363
 C         0.897506         0.881250        -0.360012
 O         1.412681        -0.342470         0.119573
 C         0.946630         0.649939         2.274042
 H         1.141307        -0.683064         4.861813
 H         0.681169        -2.430920         2.119801
 H        -0.079964        -2.483642         3.710989
 H        -1.902744        -0.888180         3.029611
 H        -1.210652        -0.922465         0.173937
 H        -1.796348         0.673398         1.002598
 H         0.137571         1.033845        -1.218339
 H         1.696551         1.639640        -0.254486
 H         2.014023         0.580525         2.176982
 H         0.744048         1.596955         2.816549
