19
Iteration:  2082
 O         0.359339         0.013123         4.563233
 C         0.259971        -0.411775         3.206105
 C         0.121357        -1.926151         2.917560
 C        -0.960233        -0.906028         2.511148
 C        -0.998988        -0.343769         0.999824
 C         0.440751         0.264684         0.888205
 C         0.923593         1.103426        -0.183978
 O         1.284782        -0.233709        -0.148219
 C         1.014757         0.492355         2.241935
 H         0.980075        -0.447446         5.110257
 H         0.601108        -2.394833         2.043004
 H        -0.248629        -2.628897         3.701016
 H        -1.860132        -1.093452         3.013610
 H        -1.039193        -1.184430         0.294337
 H        -1.707312         0.541645         1.060769
 H         0.207630         1.368073        -0.915543
 H         1.703918         1.792087        -0.040313
 H         2.028922         0.153319         2.290600
 H         0.920226         1.580936         2.552013
