19
Iteration:  1457charge 0 multiplicity 1
 O         0.435009        -0.085260         4.453951
 C         0.342164        -0.415186         3.096526
 C         0.069373        -1.884701         2.657291
 C        -0.989257        -0.792918         2.552826
 C        -0.981708        -0.265156         1.131561
 C         0.384338         0.374818         0.945795
 C         0.952256         0.929679        -0.256813
 O         1.339703        -0.400883         0.106363
 C         0.982234         0.671802         2.286227
 H         0.150028        -0.859208         4.916399
 H         0.453945        -2.395329         1.791034
 H         0.141678        -2.552364         3.554108
 H        -1.948859        -1.033088         3.069426
 H        -1.302571        -0.965176         0.428856
 H        -1.809401         0.482703         1.015503
 H         0.166561         1.070957        -0.993188
 H         1.630802         1.679818        -0.125071
 H         2.057972         0.767979         2.328222
 H         0.471737         1.587839         2.812651
