19
Iteration:  4108
 O         0.486826        -0.059197         4.583286
 C         0.318901        -0.351502         3.165656
 C         0.442426        -1.750606         2.709380
 C        -0.900870        -1.107601         2.429730
 C        -1.045759        -0.357116         1.132814
 C         0.290435         0.313872         0.923460
 C         0.827345         0.922372        -0.273168
 O         1.255674        -0.391674        -0.023950
 C         0.849373         0.846610         2.334992
 H        -0.132952        -0.535831         5.228975
 H         1.038958        -2.190334         1.783827
 H         0.425923        -2.449804         3.639436
 H        -1.899447        -1.427987         2.851465
 H        -1.381544        -0.852526         0.247077
 H        -1.960287         0.361871         1.242954
 H         0.271968         1.109132        -1.252845
 H         1.469326         1.761757        -0.015265
 H         1.947683         0.900345         2.328534
 H         0.476040         1.766735         2.646678
