19
Iteration:   187charge 0 multiplicity 1
 O         0.320133         0.068720         4.502998
 C         0.307118        -0.452082         3.165457
 C         0.122934        -1.914810         2.697987
 C        -0.969461        -0.893673         2.504271
 C        -1.001496        -0.161857         1.104420
 C         0.408295         0.256498         0.925407
 C         0.738947         0.982357        -0.217292
 O         1.446421        -0.385654         0.096045
 C         1.082340         0.522230         2.227137
 H         1.128597        -0.320764         4.831289
 H         0.460319        -2.327543         1.711922
 H        -0.190716        -2.702670         3.533893
 H        -1.895660        -0.818983         3.103271
 H        -1.286598        -0.874143         0.241346
 H        -1.670448         0.664258         1.279490
 H        -0.000345         1.104039        -0.963191
 H         1.529739         1.789434        -0.303951
 H         2.161522         0.482139         2.286766
 H         0.747726         1.435072         2.534159
