19
Iteration:  4196charge 0 multiplicity 1
 O         0.288384         0.099886         4.619552
 C         0.335316        -0.414783         3.311549
 C         0.314748        -1.889775         2.874261
 C        -0.791912        -1.057685         2.521757
 C        -0.954082        -0.520972         1.095336
 C         0.390855         0.268599         0.803351
 C         0.672680         1.177960        -0.290529
 O         1.234983        -0.204566        -0.238032
 C         1.083314         0.536047         2.277455
 H        -0.590119        -0.127335         5.060495
 H         1.048316        -2.290534         2.141800
 H         0.185727        -2.713731         3.720944
 H        -1.700331        -1.221124         3.207142
 H        -1.089531        -1.271282         0.367554
 H        -1.757400         0.291123         1.247930
 H        -0.114000         1.393270        -1.067128
 H         1.454065         1.936275        -0.140328
 H         2.175426         0.368751         2.288310
 H         0.915664         1.547423         2.667139
