19
Iteration:  3484charge 0 multiplicity 1
 O         0.433013         0.005002         4.568192
 C         0.280548        -0.429319         3.248903
 C         0.063183        -1.828122         2.941313
 C        -0.965963        -0.832941         2.486700
 C        -0.877267        -0.500671         1.035810
 C         0.429939         0.310855         0.944288
 C         0.811267         1.138128        -0.291294
 O         1.222084        -0.212344        -0.159253
 C         1.130485         0.385810         2.271660
 H        -0.469367         0.097466         4.842445
 H         0.785279        -2.332259         2.325039
 H        -0.357804        -2.513430         3.624582
 H        -1.909192        -0.710719         3.118102
 H        -0.572965        -1.390538         0.450226
 H        -1.774248        -0.062786         0.516701
 H         0.041732         1.459432        -1.077545
 H         1.635369         1.758784        -0.103790
 H         2.169446         0.122118         2.207910
 H         1.018299         1.394298         2.628283
