19
Iteration:   819
 O         0.204011         0.070402         4.617577
 C         0.256255        -0.449960         3.175829
 C         0.381046        -1.820665         2.606857
 C        -0.854006        -1.005594         2.392017
 C        -1.081210        -0.067762         1.159520
 C         0.436601         0.425222         1.034715
 C         0.979643         0.885968        -0.329067
 O         1.109519        -0.473367        -0.028209
 C         1.069805         0.533999         2.332372
 H         0.766289        -0.610244         5.107369
 H         0.992529        -1.972943         1.810098
 H         0.306729        -2.579745         3.390305
 H        -1.710634        -1.554679         2.833736
 H        -1.359655        -0.504570         0.247794
 H        -1.744413         0.777070         1.438731
 H         0.173094         1.007955        -1.027033
 H         1.856403         1.491589        -0.375881
 H         2.101252         0.281831         2.509660
 H         0.841993         1.523276         2.892546
