19
Iteration:  3514
 O         0.400029        -0.058202         4.608154
 C         0.240176        -0.357003         3.212099
 C        -0.009662        -1.836223         2.991801
 C        -1.014591        -0.916706         2.525267
 C        -0.942159        -0.518523         1.062097
 C         0.525757         0.164973         0.881826
 C         0.676233         1.113347        -0.233689
 O         1.445854        -0.090866        -0.271550
 C         1.148288         0.392992         2.249403
 H         0.323873         0.949787         4.620147
 H         0.577967        -2.533850         2.338416
 H        -0.267880        -2.293485         3.911049
 H        -1.913631        -0.628297         3.180090
 H        -1.170429        -1.273864         0.329199
 H        -1.681242         0.363737         0.864844
 H        -0.009779         1.401738        -1.024701
 H         1.297691         1.864009         0.127609
 H         2.152190        -0.093834         2.371919
 H         1.186335         1.535155         2.348824
