19
Iteration:  2946charge 0 multiplicity 1
 O         0.241394        -0.279650         4.584108
 C         0.313451        -0.378451         3.210107
 C         0.328039        -1.759630         2.623193
 C        -0.900759        -0.858370         2.545740
 C        -1.075687        -0.164443         1.172862
 C         0.309455         0.395077         0.849812
 C         1.035441         0.894876        -0.414745
 O         1.229426        -0.434559         0.154286
 C         0.958102         0.697726         2.248452
 H         1.118130        -0.343527         4.948242
 H         0.974142        -2.060104         1.793395
 H         0.348845        -2.454066         3.452886
 H        -1.680966        -1.056654         3.194032
 H        -1.291326        -1.016016         0.505416
 H        -1.735437         0.745329         1.144832
 H         0.413343         0.982443        -1.288309
 H         1.735629         1.689063        -0.183541
 H         2.031108         0.783160         2.023952
 H         0.436019         1.650805         2.501255
