19
Iteration:  2439
 O         0.284941        -0.113828         4.555212
 C         0.298515        -0.413818         3.192465
 C         0.142407        -1.790767         2.819370
 C        -0.989996        -0.826166         2.530626
 C        -0.995705        -0.310278         1.136562
 C         0.372254         0.258381         0.908290
 C         0.963524         1.058190        -0.162979
 O         1.288658        -0.335769        -0.127474
 C         1.012842         0.546381         2.188307
 H         1.068993        -0.673203         4.844391
 H         0.803886        -2.232959         1.951825
 H         0.143727        -2.450839         3.709884
 H        -2.002758        -0.876818         3.148258
 H        -1.030000        -1.185692         0.480747
 H        -1.822264         0.352475         0.841717
 H         0.517408         1.532358        -1.016059
 H         1.861908         1.694718        -0.004283
 H         2.153881         0.512623         2.176013
 H         0.979878         1.680244         2.395830
