19
Iteration:  3826charge 0 multiplicity 1
 O         0.395149        -0.003079         4.604075
 C         0.332117        -0.403247         3.231376
 C         0.199034        -1.958434         2.930807
 C        -0.867357        -0.973047         2.436804
 C        -0.900917        -0.408977         1.029805
 C         0.404543         0.348709         0.927330
 C         0.671953         1.107241        -0.344527
 O         1.222892        -0.239579        -0.085715
 C         1.061514         0.480994         2.297392
 H        -0.128720         0.817324         4.797105
 H         0.905304        -2.133683         2.134075
 H         0.036812        -2.684169         3.779334
 H        -1.788225        -1.034065         2.997095
 H        -0.876886        -1.087305         0.083512
 H        -1.830771         0.193601         0.809429
 H        -0.023261         1.125096        -1.141324
 H         1.411363         1.898823        -0.265412
 H         2.176818         0.401722         2.310356
 H         0.930381         1.487376         2.820833
