19
Iteration:  3134charge 0 multiplicity 1
 O         0.365048         0.106683         4.562357
 C         0.393798        -0.462496         3.211962
 C         0.023697        -1.934104         2.881600
 C        -1.036700        -0.843904         2.551854
 C        -0.905454        -0.472058         1.061448
 C         0.455382         0.241808         0.908487
 C         0.797951         1.150526        -0.272357
 O         1.304253        -0.131159        -0.146015
 C         1.117150         0.386812         2.236507
 H        -0.052590        -0.522392         5.206023
 H         0.654809        -2.532097         2.129444
 H        -0.265951        -2.629008         3.671710
 H        -1.867076        -0.907297         3.201132
 H        -0.865089        -1.330189         0.326619
 H        -1.643080         0.271114         0.760664
 H        -0.055395         1.271917        -0.930314
 H         1.506074         1.979464        -0.146262
 H         2.152584         0.034929         2.146624
 H         1.091005         1.394251         2.738489
