19
Iteration:  3073
 O         0.255849         0.156995         4.628985
 C         0.276510        -0.503280         3.330374
 C         0.203363        -1.900653         2.774395
 C        -0.911219        -0.954302         2.509964
 C        -0.886656        -0.336045         1.089411
 C         0.485982         0.301264         0.910255
 C         0.887974         1.126742        -0.222866
 O         1.142827        -0.335074        -0.285360
 C         1.100326         0.469942         2.309212
 H        -0.121978        -0.596913         5.172169
 H         1.030181        -1.937483         2.167969
 H        -0.107384        -2.756804         3.265639
 H        -1.837183        -1.307047         2.846097
 H        -1.249435        -0.920877         0.276444
 H        -1.477320         0.562702         0.960315
 H         0.062515         1.387873        -0.924090
 H         1.674098         1.879610        -0.133121
 H         2.103473         0.068016         2.434087
 H         1.174615         1.456279         2.748133
