19
Iteration:   995
 O         0.150964         0.097258         4.518851
 C         0.245599        -0.446271         3.129316
 C         0.233736        -1.900606         2.886410
 C        -0.899526        -0.973584         2.401790
 C        -0.894179        -0.148326         1.160999
 C         0.525139         0.284742         0.990237
 C         0.813209         1.070575        -0.281722
 O         1.147347        -0.313285        -0.132506
 C         1.217656         0.354640         2.316449
 H         0.442296        -0.563708         5.225733
 H         1.021751        -2.126064         2.134155
 H         0.041143        -2.673297         3.658216
 H        -1.879765        -1.069772         2.863398
 H        -1.339924        -0.556946         0.295376
 H        -1.591294         0.651559         1.513317
 H        -0.042926         1.332340        -1.007959
 H         1.753109         1.614337        -0.376508
 H         2.190811        -0.017904         2.315769
 H         1.232455         1.400290         2.673081
