19
Iteration:  4382charge 0 multiplicity 1
 O         0.200295        -0.144299         4.534816
 C         0.358676        -0.379885         3.184380
 C         0.480583        -1.788177         2.744407
 C        -0.835448        -1.065817         2.503466
 C        -0.971607        -0.245219         1.162980
 C         0.382054         0.315327         0.965802
 C         0.702133         0.979039        -0.295229
 O         1.238751        -0.406416        -0.036798
 C         0.930338         0.691965         2.243662
 H         0.565835         0.653637         4.950538
 H         1.176064        -1.998608         1.891796
 H         0.520856        -2.519263         3.572231
 H        -1.703878        -1.130417         3.162397
 H        -1.318779        -0.774899         0.337581
 H        -1.635902         0.615503         1.459189
 H         0.009192         1.195921        -1.027271
 H         1.452442         1.770815        -0.253606
 H         2.045517         0.517850         2.070374
 H         0.804829         1.802496         2.478959
