19
Iteration:  1894
 O         0.173245        -0.215968         4.588995
 C         0.273107        -0.279536         3.208701
 C         0.264791        -1.818155         2.744331
 C        -0.897852        -0.926152         2.480590
 C        -0.994717        -0.167603         1.098583
 C         0.457465         0.436353         0.968210
 C         0.882738         0.920530        -0.357403
 O         1.209912        -0.434846        -0.063196
 C         1.100804         0.625231         2.353077
 H         1.051953        -0.582991         4.855123
 H         0.987754        -2.133317         1.924952
 H         0.261815        -2.460199         3.646509
 H        -1.890123        -1.039924         2.905163
 H        -1.163536        -0.993352         0.394798
 H        -1.788235         0.640661         1.313717
 H         0.170655         1.105458        -1.111999
 H         1.720375         1.634731        -0.557980
 H         2.115529         0.475462         2.362120
 H         0.865201         1.697991         2.628217
