19
Iteration:  3407
 O         0.155757        -0.037970         4.626036
 C         0.310190        -0.425064         3.269704
 C         0.250345        -1.818053         2.701460
 C        -0.863178        -0.950230         2.460686
 C        -0.947132        -0.181370         1.165733
 C         0.441351         0.390016         0.930498
 C         0.925575         0.940118        -0.403185
 O         1.137906        -0.369820        -0.017036
 C         1.087247         0.485761         2.289574
 H         1.104819        -0.014093         4.920866
 H         0.849920        -2.009177         1.804320
 H         0.209748        -2.567439         3.438671
 H        -1.890360        -1.160357         2.931187
 H        -1.276863        -0.848716         0.375776
 H        -1.650145         0.643727         1.242164
 H         0.125012         1.214367        -1.157935
 H         1.756605         1.605141        -0.473577
 H         2.141414         0.303091         2.289245
 H         0.974970         1.484926         2.641798
