19
Iteration:   278
 O         0.174809         0.056497         4.515180
 C         0.262358        -0.396853         3.232041
 C         0.247349        -1.901302         2.801001
 C        -0.982689        -0.943757         2.549263
 C        -0.993516        -0.198878         1.213002
 C         0.454851         0.257282         0.905057
 C         0.861289         1.006475        -0.262341
 O         1.313076        -0.310417        -0.097371
 C         1.124174         0.437925         2.207046
 H         1.013190         0.149150         5.010766
 H         0.870384        -2.327570         1.977351
 H        -0.095068        -2.695096         3.433266
 H        -1.941092        -1.333636         2.944484
 H        -1.274431        -0.853234         0.391593
 H        -1.526625         0.754281         1.206168
 H         0.073239         1.249570        -1.092274
 H         1.597746         1.829121        -0.130046
 H         2.168694         0.126475         2.061693
 H         1.123751         1.458261         2.496546
