19
Iteration:  3830charge 0 multiplicity 1
 O         0.389341         0.003495         4.614704
 C         0.349484        -0.398882         3.189396
 C         0.191055        -1.954238         2.944776
 C        -0.862835        -0.981173         2.451889
 C        -0.880651        -0.422587         0.993583
 C         0.386630         0.368236         0.930939
 C         0.684570         1.119875        -0.303718
 O         1.222030        -0.242995        -0.103084
 C         1.047013         0.451274         2.318591
 H         0.046772         0.912440         4.626623
 H         0.827737        -2.167366         2.106358
 H         0.023312        -2.495937         3.783826
 H        -1.771439        -1.119645         3.015401
 H        -0.900609        -1.077018         0.173330
 H        -1.707694         0.246275         0.788307
 H        -0.135886         1.018995        -1.102268
 H         1.354167         1.970079        -0.240181
 H         2.108487         0.382569         2.328498
 H         0.902481         1.392100         2.755845
