19
Iteration:  4267charge 0 multiplicity 1
 O         0.326096         0.099977         4.523671
 C         0.267289        -0.464722         3.283313
 C         0.355004        -1.902251         3.000986
 C        -0.840264        -0.973999         2.518023
 C        -0.895197        -0.523962         1.095063
 C         0.403331         0.411451         0.896258
 C         0.617674         1.137616        -0.319163
 O         1.261355        -0.153813        -0.280329
 C         1.065757         0.421369         2.343109
 H        -0.424371        -0.271911         5.061871
 H         0.888197        -2.447962         2.247006
 H         0.200882        -2.769726         3.653875
 H        -1.804055        -1.060552         2.971027
 H        -0.825203        -1.438008         0.317679
 H        -1.792646         0.078265         1.071809
 H        -0.200130         1.229358        -1.089298
 H         1.160810         2.139347        -0.402871
 H         2.111542         0.155070         2.289498
 H         1.116962         1.419060         2.892559
