19
Iteration:   126
 O         0.061758        -0.171789         4.708567
 C         0.284356        -0.287501         3.314229
 C         0.402950        -1.690839         2.773047
 C        -0.872536        -0.877452         2.447561
 C        -0.961186        -0.103228         1.170351
 C         0.444556         0.246092         0.805177
 C         0.941281         0.951098        -0.318310
 O         1.060477        -0.497708        -0.200438
 C         1.137281         0.526270         2.316093
 H         0.827263        -0.562241         5.112525
 H         1.262000        -1.849133         2.144554
 H         0.139975        -2.466940         3.523302
 H        -1.730893        -1.285036         2.916628
 H        -1.420110        -0.603650         0.318612
 H        -1.684107         0.817482         1.213798
 H         0.437526         1.510601        -1.177461
 H         2.007631         1.437835        -0.157478
 H         2.241593         0.251360         2.249821
 H         0.932220         1.703334         2.353109
