19
Iteration:  1564
 O         0.228462        -0.101851         4.592528
 C         0.367531        -0.432646         3.267117
 C         0.192295        -1.860654         2.804384
 C        -0.890764        -0.877652         2.409521
 C        -1.025845        -0.183292         1.062964
 C         0.344148         0.408115         0.893171
 C         0.897961         1.002556        -0.339720
 O         1.238666        -0.332905        -0.003664
 C         1.114595         0.489657         2.298207
 H         0.779010        -0.630152         5.179503
 H         0.998362        -2.191039         2.142247
 H         0.038262        -2.570310         3.701815
 H        -1.889003        -0.979700         2.886949
 H        -1.299478        -0.916733         0.248929
 H        -1.801156         0.628779         1.262806
 H         0.245866         1.015252        -1.269665
 H         1.768480         1.646619        -0.387460
 H         2.094208         0.255500         2.156335
 H         1.093660         1.571213         2.635028
