19
Iteration:    21charge 0 multiplicity 1
 O         0.371669        -0.222037         4.670724
 C         0.353886        -0.337606         3.207350
 C         0.142021        -1.715083         2.675544
 C        -1.022216        -0.728048         2.537085
 C        -0.998945        -0.310397         1.033279
 C         0.402316         0.242909         0.902575
 C         0.916798         0.957237        -0.194421
 O         1.335380        -0.452622        -0.119956
 C         0.921464         0.698935         2.298352
 H         1.233190        -0.467688         5.000508
 H         0.636900        -2.010885         1.786705
 H         0.127540        -2.563729         3.349385
 H        -1.867225        -0.854062         3.185875
 H        -1.083971        -1.264529         0.469929
 H        -1.718713         0.326356         0.780689
 H         0.248213         1.208251        -1.020032
 H         1.637657         1.607981         0.032195
 H         1.953692         0.929525         2.296949
 H         0.443865         1.605905         2.514948
