19
Iteration:  1783charge 0 multiplicity 1
 O         0.319767        -0.168773         4.632997
 C         0.308005        -0.358431         3.191169
 C         0.103634        -1.807878         2.712605
 C        -1.006708        -0.823372         2.555501
 C        -0.956567        -0.291625         1.150527
 C         0.493262         0.306061         0.884508
 C         0.828300         0.948382        -0.355072
 O         1.444680        -0.321432        -0.051653
 C         0.987748         0.620618         2.294705
 H         0.700938        -0.989593         4.944943
 H         0.407041        -2.059318         1.733697
 H        -0.101455        -2.607478         3.409046
 H        -1.855952        -0.718098         3.283307
 H        -1.207212        -1.125178         0.399177
 H        -1.774237         0.477693         0.973435
 H         0.066538         1.001331        -1.108984
 H         1.421723         1.824315        -0.389260
 H         2.015852         0.711716         2.344501
 H         0.522161         1.626141         2.629638
