19
Iteration:  2853
 O         0.175412        -0.042396         4.579856
 C         0.317646        -0.405725         3.225315
 C         0.173083        -1.919253         2.939423
 C        -0.918376        -0.845472         2.637160
 C        -0.911735        -0.391404         1.084261
 C         0.485234         0.243640         0.814793
 C         0.876341         1.097684        -0.300962
 O         1.251319        -0.206948        -0.219727
 C         1.083746         0.510187         2.249526
 H         1.010811        -0.300646         5.056767
 H         0.641857        -2.353221         2.014241
 H        -0.148847        -2.676511         3.714728
 H        -1.914924        -0.874457         3.129952
 H        -0.988256        -1.236061         0.390535
 H        -1.665496         0.323746         0.920578
 H        -0.065885         1.380185        -0.953261
 H         1.574203         1.996906        -0.048792
 H         2.132264         0.250533         2.199089
 H         0.830394         1.431436         2.738285
