19
Iteration:  3137charge 0 multiplicity 1
 O         0.379552         0.105769         4.565503
 C         0.360832        -0.482733         3.234017
 C         0.020650        -1.910167         2.866523
 C        -1.034827        -0.829791         2.562051
 C        -0.896634        -0.486580         1.060155
 C         0.472144         0.237224         0.919598
 C         0.805946         1.163915        -0.268060
 O         1.297566        -0.135054        -0.178386
 C         1.116434         0.381569         2.272338
 H        -0.016145        -0.540012         5.187776
 H         0.649841        -2.382311         2.173570
 H        -0.280144        -2.582434         3.621185
 H        -1.922089        -1.003334         3.130514
 H        -0.858039        -1.336373         0.281471
 H        -1.746868         0.215717         0.673676
 H        -0.062554         1.152823        -0.895329
 H         1.485497         1.926679        -0.193464
 H         2.186189         0.140140         2.075090
 H         1.110774         1.434459         2.713729
