19
Iteration:  1957charge 0 multiplicity 1
 O         0.412503         0.029359         4.456820
 C         0.220112        -0.442879         3.119130
 C        -0.016364        -1.925675         3.001134
 C        -1.024544        -0.897086         2.523124
 C        -0.956569        -0.387831         1.086340
 C         0.407548         0.243608         0.848631
 C         0.851855         1.199749        -0.206580
 O         1.419332        -0.211754        -0.076466
 C         1.095727         0.433503         2.244469
 H         0.775335        -0.709593         4.939981
 H         0.463606        -2.398470         2.185382
 H        -0.036151        -2.503694         3.886135
 H        -1.938230        -0.949763         3.059521
 H        -1.131667        -1.205390         0.329744
 H        -1.694876         0.453941         0.918814
 H         0.249489         1.241643        -1.115075
 H         1.480695         1.996599         0.198151
 H         2.199550         0.285862         2.129325
 H         0.901808         1.457735         2.705506
