19
Iteration:   158charge 0 multiplicity 1
 O         0.152218        -0.085523         4.574216
 C         0.317487        -0.450057         3.203773
 C         0.246119        -1.834026         2.790703
 C        -0.884479        -0.899483         2.520564
 C        -0.997806        -0.154357         1.188490
 C         0.382935         0.398166         0.906332
 C         0.993050         0.981800        -0.377160
 O         1.163815        -0.435726        -0.139213
 C         1.097987         0.544011         2.334209
 H         1.037210         0.157101         4.947158
 H         0.922137        -2.318390         2.088308
 H        -0.041299        -2.528721         3.595626
 H        -1.800902        -1.065941         3.022900
 H        -1.178817        -0.853094         0.429834
 H        -1.828555         0.554350         1.264230
 H         0.351942         1.250177        -1.212085
 H         2.024094         1.413264        -0.185061
 H         2.226880         0.493700         2.327967
 H         0.862472         1.623646         2.679072
