19
Iteration:   121
 O         0.064915        -0.148445         4.677759
 C         0.280120        -0.264733         3.291942
 C         0.401442        -1.690839         2.752693
 C        -0.871528        -0.873260         2.434031
 C        -0.997521        -0.107476         1.219707
 C         0.463752         0.270927         0.849225
 C         0.944748         0.951253        -0.332011
 O         1.085879        -0.518463        -0.212330
 C         1.142040         0.522067         2.330428
 H         0.782651        -0.680622         5.133264
 H         1.184823        -1.894016         1.980505
 H         0.095718        -2.488363         3.437552
 H        -1.740135        -1.357141         2.947019
 H        -1.387853        -0.680937         0.348162
 H        -1.583694         0.754389         1.335907
 H         0.387410         1.416896        -1.119844
 H         1.829694         1.485056        -0.146848
 H         2.201268         0.309020         2.370604
 H         0.952515         1.529881         2.437650
