19
Iteration:   459charge 0 multiplicity 1
 O         0.302617        -0.090102         4.669291
 C         0.249245        -0.298844         3.218226
 C         0.413651        -1.796226         2.696913
 C        -0.975788        -0.842098         2.465644
 C        -1.023195        -0.161188         1.137202
 C         0.382629         0.258198         0.871911
 C         0.941783         0.892023        -0.270080
 O         1.158680        -0.472678        -0.078309
 C         1.051319         0.634757         2.271405
 H         0.010713        -0.963077         4.996862
 H         1.187318        -1.815112         1.866627
 H         0.569835        -2.654043         3.415340
 H        -1.916049        -1.262659         2.864861
 H        -1.448109        -0.855101         0.449147
 H        -1.669606         0.713957         1.052143
 H         0.170179         1.086157        -1.105583
 H         1.808768         1.667044         0.081065
 H         2.175272         0.559080         2.433022
 H         0.759116         1.710677         2.522074
