19
Iteration:   347charge 0 multiplicity 1
 O         0.121654        -0.052826         4.619574
 C         0.398250        -0.444345         3.264147
 C         0.179980        -1.813427         2.935283
 C        -0.982695        -0.853350         2.584924
 C        -0.958041        -0.338760         1.052639
 C         0.496489         0.252692         0.871125
 C         0.922273         1.091319        -0.265046
 O         1.165321        -0.328729        -0.261203
 C         1.170888         0.546068         2.254493
 H         0.902879        -0.330034         5.101791
 H         0.638630        -2.246576         2.097373
 H        -0.013911        -2.579575         3.692740
 H        -1.857632        -1.069271         3.194848
 H        -0.938756        -1.137581         0.361545
 H        -1.736654         0.388011         0.791540
 H         0.157437         1.533333        -1.052365
 H         1.873740         1.646003        -0.302006
 H         2.250155         0.425278         2.187663
 H         0.904370         1.617122         2.544341
