19
Iteration:  1823
 O         0.242864        -0.187676         4.566377
 C         0.260183        -0.354072         3.156502
 C         0.319717        -1.780739         2.669486
 C        -0.884645        -0.949492         2.411275
 C        -1.023542        -0.138153         1.132125
 C         0.387559         0.439746         0.978829
 C         1.005806         0.900909        -0.338342
 O         1.145259        -0.482789         0.102726
 C         0.970346         0.668231         2.297489
 H         1.187535        -0.315509         4.854563
 H         0.952069        -1.986402         1.769761
 H         0.417002        -2.445793         3.518418
 H        -1.833965        -1.337155         2.904915
 H        -1.140011        -0.661800         0.189606
 H        -1.695800         0.688307         1.582066
 H         0.253092         1.132479        -1.212414
 H         1.916799         1.523543        -0.388930
 H         2.113603         0.475146         2.479865
 H         0.688907         1.634130         2.636926
