19
Iteration:  3150
 O         0.437743         0.043422         4.575054
 C         0.198678        -0.413940         3.326026
 C         0.052389        -1.845337         2.888078
 C        -0.991022        -0.828164         2.470432
 C        -0.877257        -0.471866         1.032610
 C         0.499594         0.269456         0.910727
 C         0.725537         1.143816        -0.207634
 O         1.309654        -0.218422        -0.294756
 C         1.138625         0.387895         2.355889
 H         0.194273        -0.553867         5.291243
 H         0.626860        -2.127584         2.059578
 H        -0.187926        -2.644164         3.605768
 H        -2.084372        -0.924231         2.828824
 H        -0.786594        -1.489391         0.595487
 H        -1.800994         0.080655         0.638495
 H         0.006319         1.478811        -0.987914
 H         1.467963         1.958992        -0.222345
 H         2.235833         0.118929         2.479794
 H         0.927293         1.433242         2.631640
