19
Iteration:  2488charge 0 multiplicity 1
 O         0.341120        -0.134797         4.518577
 C         0.242457        -0.415960         3.175472
 C         0.200000        -1.834951         2.661672
 C        -0.957212        -0.911323         2.437356
 C        -0.969279        -0.136690         1.157086
 C         0.478710         0.430615         0.970858
 C         0.864708         0.848412        -0.366948
 O         1.344483        -0.435899         0.092121
 C         0.937731         0.671576         2.364597
 H         1.155346        -0.581436         4.722093
 H         0.707301        -2.147218         1.807427
 H        -0.045641        -2.540633         3.429311
 H        -1.848618        -1.093220         2.987530
 H        -1.267749        -0.583556         0.191911
 H        -1.680845         0.685872         1.338113
 H        -0.042985         0.836505        -1.091006
 H         1.436981         1.777677        -0.603263
 H         1.960840         0.797434         2.592383
 H         0.602289         1.577528         2.782394
