19
Iteration:   932
 O         0.280432        -0.072546         4.558072
 C         0.270579        -0.370030         3.152235
 C         0.048553        -1.853807         2.875216
 C        -0.998930        -0.816384         2.531303
 C        -0.935026        -0.359990         1.118016
 C         0.463465         0.246077         0.891513
 C         0.847826         1.124999        -0.217449
 O         1.304105        -0.237611        -0.100692
 C         1.104804         0.435161         2.207085
 H         1.269347        -0.079828         4.759364
 H         0.485705        -2.503816         2.057004
 H         0.025955        -2.428624         3.843893
 H        -1.889162        -0.719892         3.081550
 H        -0.937101        -1.280939         0.562572
 H        -1.829799         0.249031         0.822868
 H         0.263008         1.214536        -1.091004
 H         1.732758         1.689153        -0.095550
 H         2.167742        -0.052944         2.093019
 H         1.243192         1.433876         2.676166
