19
Iteration:  1807charge 0 multiplicity 1
 O         0.272814        -0.256625         4.642121
 C         0.300214        -0.369386         3.239661
 C         0.312137        -1.779611         2.711171
 C        -0.943207        -0.821566         2.445457
 C        -1.035024        -0.176359         1.054536
 C         0.386206         0.366166         0.877015
 C         0.902287         0.927715        -0.341975
 O         1.249710        -0.431059         0.067485
 C         1.004454         0.691751         2.303179
 H         1.066428        -0.638128         5.036837
 H         0.970038        -2.079346         1.914993
 H        -0.093121        -2.542238         3.433736
 H        -1.775188        -0.980158         3.060980
 H        -1.292069        -1.005367         0.361193
 H        -1.744463         0.558454         0.855543
 H         0.350331         0.984918        -1.223787
 H         1.757741         1.648802        -0.346110
 H         2.052681         0.654683         2.184562
 H         0.724656         1.755681         2.632198
