19
Iteration:  3198
 O         0.209986         0.059632         4.546176
 C         0.340445        -0.495417         3.192182
 C         0.151027        -1.962229         2.932179
 C        -0.905727        -0.866843         2.574527
 C        -0.965492        -0.340329         1.084247
 C         0.417321         0.295424         0.869709
 C         0.817423         1.116768        -0.291988
 O         1.302387        -0.209830        -0.178384
 C         1.113825         0.422928         2.267931
 H         0.733923        -0.595787         5.088994
 H         0.793039        -2.499747         2.116069
 H        -0.182395        -2.549333         3.804593
 H        -1.677049        -0.735454         3.281769
 H        -1.084778        -1.141728         0.403737
 H        -1.728568         0.382226         1.050060
 H         0.242982         1.385226        -1.203111
 H         1.437355         2.074448        -0.024693
 H         2.125309         0.077489         2.040559
 H         1.020789         1.393021         2.729522
