19
Iteration:  4720
 O         0.373937        -0.000096         4.586212
 C         0.325032        -0.358150         3.187557
 C         0.538440        -1.801100         2.776368
 C        -0.767914        -1.117782         2.482796
 C        -1.046074        -0.422886         1.074467
 C         0.294316         0.313294         0.938374
 C         0.670753         1.079442        -0.225055
 O         1.269308        -0.312758         0.004986
 C         0.892690         0.689629         2.186173
 H        -0.446381        -0.413522         4.935909
 H         1.304882        -2.089880         2.050742
 H         0.416740        -2.499040         3.579635
 H        -1.543171        -1.702689         2.995141
 H        -1.181297        -1.211451         0.357539
 H        -1.876621         0.280253         0.996769
 H        -0.151654         1.070550        -0.947904
 H         1.507099         1.818404        -0.351071
 H         1.979408         0.955307         2.205552
 H         0.328021         1.636439         2.398785
