19
Iteration:  3214
 O         0.152849         0.049241         4.492640
 C         0.399136        -0.481907         3.220188
 C         0.141159        -1.995428         2.856491
 C        -0.909934        -0.946198         2.556979
 C        -0.954163        -0.323787         1.193788
 C         0.417487         0.361272         0.883442
 C         0.844958         1.122409        -0.304143
 O         1.271224        -0.219481        -0.069230
 C         1.132261         0.403692         2.238356
 H         1.063260         0.256567         4.883288
 H         0.610579        -2.300755         1.993439
 H         0.084549        -2.679241         3.698399
 H        -1.972358        -1.009442         2.965561
 H        -1.259042        -0.946902         0.261154
 H        -1.780039         0.472389         1.074445
 H         0.006010         1.272909        -1.024003
 H         1.672303         1.735015        -0.395342
 H         2.213946         0.177481         2.199469
 H         1.226602         1.490940         2.553844
