19
Iteration:  2885
 O         0.114701        -0.011112         4.626556
 C         0.302730        -0.368243         3.237365
 C         0.368097        -1.830612         2.793628
 C        -0.859075        -0.971985         2.460831
 C        -0.995277        -0.213120         1.113984
 C         0.388925         0.316750         0.909151
 C         0.841335         1.002573        -0.334227
 O         1.215214        -0.335644        -0.085656
 C         1.153859         0.506304         2.267015
 H         0.464266        -0.751540         5.107199
 H         1.027424        -2.224597         1.966255
 H         0.110688        -2.621950         3.581721
 H        -1.817861        -1.210153         3.001037
 H        -1.396473        -0.730691         0.187607
 H        -1.676710         0.615991         1.216562
 H        -0.015607         1.075776        -1.092888
 H         1.609426         1.852191        -0.127661
 H         2.195202         0.170925         2.107070
 H         1.314673         1.500860         2.750063
