19
Iteration:  3258charge 0 multiplicity 1
 O         0.253070        -0.165821         4.695835
 C         0.252395        -0.391930         3.291741
 C         0.321918        -1.753877         2.766840
 C        -0.943628        -0.933398         2.433665
 C        -0.962786        -0.171540         1.145767
 C         0.523036         0.267831         0.882066
 C         0.905724         1.059545        -0.329079
 O         1.167788        -0.429104        -0.134031
 C         1.042437         0.495221         2.246503
 H         0.125917         0.817063         4.855864
 H         1.035728        -1.966537         2.026844
 H         0.092759        -2.593688         3.383472
 H        -1.772601        -1.259482         3.157107
 H        -1.443122        -0.759597         0.283872
 H        -1.726593         0.688419         1.180764
 H         0.075236         1.334592        -0.994295
 H         1.767651         1.667007        -0.228611
 H         2.147881         0.580849         2.222620
 H         0.801403         1.556163         2.599576
