19
Iteration:  3879
 O         0.197268         0.059222         4.605061
 C         0.369804        -0.438892         3.247605
 C         0.307995        -1.897183         2.962296
 C        -0.964179        -0.890002         2.586999
 C        -0.946448        -0.540361         1.142334
 C         0.419944         0.180821         0.835897
 C         0.685362         1.185804        -0.231100
 O         1.358287        -0.082305        -0.298177
 C         1.031526         0.385627         2.180213
 H         1.043058        -0.028352         5.162008
 H         0.739546        -2.451705         2.038990
 H         0.072771        -2.426701         4.029206
 H        -1.925921        -0.849855         3.093216
 H        -1.009459        -1.389935         0.349665
 H        -1.755715         0.179036         0.906605
 H        -0.091637         1.454909        -0.915868
 H         1.496235         1.926727         0.018217
 H         2.099130         0.071765         1.943972
 H         1.099520         1.485127         2.490815
