19
Iteration:  2747charge 0 multiplicity 1
 O         0.229695         0.136659         4.560592
 C         0.294542        -0.460778         3.305281
 C         0.044188        -1.949887         3.036678
 C        -0.883614        -0.872295         2.492689
 C        -0.768648        -0.418853         1.011872
 C         0.635497         0.143219         0.967348
 C         0.708370         1.264534        -0.115550
 O         1.128584        -0.130641        -0.454759
 C         1.265831         0.222820         2.301895
 H        -0.745608         0.288708         4.712878
 H         0.804771        -2.537140         2.502850
 H        -0.509889        -2.511544         3.767371
 H        -1.958027        -0.844495         2.919788
 H        -0.883943        -1.251195         0.293796
 H        -1.590941         0.370561         0.680038
 H        -0.197947         1.662616        -0.562874
 H         1.542222         1.849599        -0.253742
 H         2.338261        -0.131858         2.319546
 H         1.427033         1.293681         2.640043
