19
Iteration:  2127
 O         0.266212        -0.190708         4.634107
 C         0.270998        -0.353464         3.195218
 C         0.177984        -1.824739         2.663557
 C        -0.984993        -0.819014         2.555365
 C        -0.963445        -0.280520         1.160718
 C         0.435799         0.419548         0.908123
 C         0.861831         0.915300        -0.415015
 O         1.360440        -0.362671        -0.037096
 C         1.032500         0.641555         2.344845
 H         0.910098        -0.860769         4.884831
 H         0.754590        -2.228806         1.844532
 H         0.235742        -2.449186         3.537461
 H        -2.009872        -0.892889         2.877153
 H        -1.075420        -1.148582         0.501117
 H        -1.682859         0.602532         1.280650
 H        -0.052891         1.026307        -1.035847
 H         1.584250         1.654663        -0.512275
 H         2.113013         0.520711         2.147944
 H         0.736138         1.670210         2.697014
