19
Iteration:  4811charge 0 multiplicity 1
 O         0.413162        -0.048062         4.529693
 C         0.253862        -0.322705         3.208049
 C         0.521622        -1.774542         2.685525
 C        -0.765193        -1.137143         2.479585
 C        -0.924231        -0.488750         1.159871
 C         0.304460         0.348787         0.885791
 C         0.616203         0.970754        -0.362185
 O         1.291169        -0.259925         0.056400
 C         0.797169         0.773937         2.349364
 H        -0.249750        -0.504146         5.078943
 H         1.353148        -1.987810         1.952686
 H         0.412722        -2.435592         3.552087
 H        -1.598075        -1.587352         3.074573
 H        -0.984512        -1.155292         0.343880
 H        -1.793461         0.181555         1.007751
 H         0.012796         0.869906        -1.271638
 H         1.269801         1.831690        -0.302565
 H         1.880482         1.033869         2.374027
 H         0.295753         1.664548         2.667328
