19
Iteration:  4507charge 0 multiplicity 1
 O         0.515423        -0.100547         4.628476
 C         0.269045        -0.315167         3.148883
 C         0.309982        -1.810419         2.789561
 C        -0.911101        -1.084267         2.449837
 C        -0.930982        -0.386889         1.085379
 C         0.353309         0.290675         0.949477
 C         0.681997         1.009082        -0.295756
 O         1.290536        -0.321013        -0.010568
 C         0.908434         0.740316         2.246627
 H        -0.377205         0.102203         4.935669
 H         0.952970        -2.235067         1.939307
 H         0.560779        -2.484911         3.569598
 H        -1.826031        -1.177195         3.075923
 H        -0.906225        -0.892809         0.055316
 H        -1.741696         0.338882         1.041970
 H        -0.117351         1.043353        -1.200080
 H         1.420227         1.795854        -0.158419
 H         1.967503         0.598651         2.519017
 H         0.520922         1.755391         2.574976
