19
Iteration:   297charge 0 multiplicity 1
 O         0.154291         0.137754         4.557055
 C         0.268111        -0.468791         3.233802
 C         0.232928        -1.889682         2.800206
 C        -0.887797        -1.005117         2.416598
 C        -1.046784        -0.180482         1.170578
 C         0.410795         0.289399         0.887044
 C         0.820193         1.045628        -0.302031
 O         1.336768        -0.316351        -0.103705
 C         1.137627         0.312051         2.323451
 H         1.035698         0.604434         4.726475
 H         1.081096        -2.224029         2.076378
 H         0.246431        -2.695498         3.580557
 H        -1.722109        -0.930196         3.071473
 H        -1.770566        -0.470493         0.230883
 H        -1.576650         0.707532         1.640655
 H         0.103633         1.056415        -1.080770
 H         1.551163         1.930904        -0.149645
 H         2.128106        -0.213288         2.311681
 H         1.344290         1.277286         2.703055
