19
Iteration:  4219charge 0 multiplicity 1
 O         0.251716         0.133513         4.493201
 C         0.335448        -0.445671         3.201060
 C         0.408953        -1.887051         2.919843
 C        -0.861523        -1.026586         2.612025
 C        -0.964698        -0.440434         1.153022
 C         0.371743         0.186284         0.871209
 C         0.702264         1.169122        -0.166609
 O         1.248787        -0.157922        -0.295428
 C         1.042554         0.443555         2.240043
 H        -0.624215        -0.114031         4.804779
 H         1.161210        -2.189778         2.182495
 H         0.493236        -2.596127         3.777908
 H        -1.737207        -1.296175         3.285026
 H        -0.970904        -1.278259         0.534517
 H        -1.807661         0.301572         1.023685
 H         0.055374         1.488488        -0.993255
 H         1.486626         1.913204         0.134004
 H         2.105706         0.219243         2.149684
 H         0.921353         1.384190         2.682676
