19
Iteration:  3062
 O         0.214145         0.084207         4.624501
 C         0.287822        -0.423561         3.299594
 C         0.312398        -1.848611         2.718182
 C        -0.951972        -0.891007         2.465923
 C        -0.942282        -0.275526         1.102608
 C         0.483976         0.272382         0.955459
 C         0.863804         1.039371        -0.244254
 O         1.152607        -0.314097        -0.240032
 C         1.132596         0.423493         2.359931
 H        -0.089301        -0.501106         5.317172
 H         0.937744        -2.124593         1.922371
 H         0.059295        -2.706887         3.250559
 H        -1.827876        -1.150041         2.981189
 H        -1.013906        -1.139273         0.490155
 H        -1.747227         0.414147         0.952803
 H         0.075435         1.545887        -0.864903
 H         1.817385         1.534011        -0.158527
 H         2.188071         0.198167         2.226611
 H         1.000488         1.480790         2.563865
