19
Iteration:   806charge 0 multiplicity 1
 O         0.203518        -0.013201         4.516012
 C         0.248666        -0.402619         3.228830
 C         0.405574        -1.889640         2.660868
 C        -0.871750        -0.986671         2.378049
 C        -0.970894         0.003758         1.253803
 C         0.411932         0.386910         0.915844
 C         0.903980         0.878361        -0.332027
 O         1.169776        -0.498993         0.018901
 C         0.984914         0.609579         2.392028
 H         0.834340        -0.551960         4.985824
 H         1.114119        -2.069106         1.892720
 H         0.099535        -2.793734         3.189979
 H        -1.758630        -1.304487         2.844532
 H        -1.538143        -0.415803         0.398890
 H        -1.524472         0.834518         1.583458
 H         0.293912         1.108543        -1.191010
 H         1.854634         1.465429        -0.463395
 H         2.001520         0.490132         2.288643
 H         0.800285         1.656475         2.670744
