19
Iteration:  3102
 O         0.293270         0.072238         4.451238
 C         0.346731        -0.515701         3.168685
 C         0.179755        -1.907294         3.025697
 C        -0.982150        -0.971651         2.498864
 C        -0.999204        -0.300917         1.109726
 C         0.449446         0.275058         0.913683
 C         0.826587         1.122697        -0.209396
 O         1.302923        -0.183682        -0.167232
 C         1.135739         0.397553         2.205171
 H        -0.202384        -0.613142         4.950487
 H         0.948754        -2.547963         2.484562
 H        -0.260227        -2.314982         3.926754
 H        -1.894317        -1.098838         3.056029
 H        -1.356435        -0.985457         0.220967
 H        -1.586286         0.693090         1.050456
 H         0.054915         1.458800        -0.885426
 H         1.524078         1.952460        -0.174927
 H         2.180817         0.054277         2.267437
 H         1.083202         1.417728         2.724404
