19
Iteration:  2491charge 0 multiplicity 1
 O         0.316907        -0.147533         4.523467
 C         0.263040        -0.427063         3.169070
 C         0.221506        -1.838111         2.658048
 C        -0.965583        -0.875139         2.427742
 C        -0.954379        -0.132404         1.133811
 C         0.456900         0.413183         0.989742
 C         0.849599         0.832851        -0.375294
 O         1.346060        -0.447012         0.079379
 C         0.951834         0.702687         2.401230
 H         1.180564        -0.622768         4.674282
 H         0.747906        -2.084303         1.714672
 H         0.011433        -2.489932         3.466575
 H        -1.895503        -1.201039         3.064429
 H        -1.405467        -0.623097         0.200823
 H        -1.702144         0.781004         1.341808
 H        -0.004919         0.804469        -0.982721
 H         1.451738         1.741608        -0.599089
 H         2.048773         0.779817         2.604370
 H         0.596402         1.731913         2.745664
