19
Iteration:  4523charge 0 multiplicity 1
 O         0.356442        -0.187521         4.532410
 C         0.303892        -0.341743         3.224560
 C         0.438989        -1.809549         2.828684
 C        -0.895865        -0.963681         2.510641
 C        -0.965721        -0.411669         1.105735
 C         0.419491         0.314597         0.942233
 C         0.675755         1.042039        -0.339227
 O         1.263843        -0.297482        -0.075138
 C         0.961379         0.672173         2.300027
 H        -0.154684         0.604361         4.822749
 H         1.062431        -2.158717         2.049835
 H         0.158717        -2.358384         3.756760
 H        -1.785269        -1.348220         2.989579
 H        -1.179823        -1.288861         0.515527
 H        -1.793253         0.345268         1.082957
 H        -0.080908         1.045979        -1.032849
 H         1.361593         1.914934        -0.417467
 H         2.049435         0.712773         2.213535
 H         0.697678         1.681204         2.555393
