19
Iteration:  2478charge 0 multiplicity 1
 O         0.396978        -0.097552         4.547223
 C         0.256562        -0.410433         3.169786
 C         0.146447        -1.890574         2.702122
 C        -0.984808        -0.959637         2.442324
 C        -0.973417        -0.136440         1.167614
 C         0.458826         0.416707         0.925018
 C         0.870520         0.937229        -0.376489
 O         1.331999        -0.363854         0.122591
 C         0.924541         0.614323         2.298562
 H         1.128120        -0.481734         5.011507
 H         0.773388        -2.272571         1.963380
 H        -0.033296        -2.655900         3.406405
 H        -1.955645        -0.986466         2.915642
 H        -1.123075        -0.811246         0.271528
 H        -1.740766         0.720375         1.208395
 H         0.221443         0.792637        -1.280347
 H         1.792982         1.586659        -0.440284
 H         1.987222         0.575152         2.342953
 H         0.411141         1.486546         2.667240
