19
Iteration:  1700
 O         0.138244         0.113268         4.516518
 C         0.301701        -0.434475         3.207697
 C         0.131946        -1.901504         2.888511
 C        -0.952435        -0.907782         2.550012
 C        -0.960205        -0.326049         1.126771
 C         0.538369         0.169536         0.937830
 C         0.907817         1.160106        -0.096369
 O         1.187568        -0.229756        -0.388306
 C         1.234817         0.383942         2.265963
 H        -0.026481        -0.672638         5.105732
 H         0.928216        -2.167209         2.242975
 H         0.138950        -2.710138         3.676102
 H        -1.773275        -0.936983         3.165666
 H        -1.076378        -1.163315         0.438722
 H        -1.879104         0.527309         1.109570
 H         0.065833         1.578958        -0.594380
 H         1.867231         1.747813         0.154399
 H         2.281225        -0.055757         2.260099
 H         1.337044         1.423354         2.533115
