19
Iteration:  4589
 O         0.203608         0.111128         4.485927
 C         0.329528        -0.461605         3.190080
 C         0.555922        -1.913750         2.966244
 C        -0.869458        -1.032805         2.487729
 C        -0.988522        -0.434441         1.044186
 C         0.410597         0.287123         0.899058
 C         0.606770         1.138396        -0.209880
 O         1.225686        -0.264150        -0.152673
 C         1.029506         0.535962         2.296042
 H         0.705834        -0.516889         5.015173
 H         1.098780        -2.202328         2.080882
 H         0.506418        -2.427617         3.928023
 H        -1.765586        -1.268045         3.090547
 H        -1.139552        -0.947735         0.106640
 H        -1.689276         0.428163         1.028912
 H        -0.180551         1.432630        -0.830353
 H         1.297947         1.988609        -0.006435
 H         2.120624         0.483803         2.205997
 H         0.787304         1.477371         2.684011
