19
Iteration:  4972charge 0 multiplicity 1
 O         0.201022         0.104765         4.592349
 C         0.381854        -0.412730         3.281819
 C         0.578763        -1.827239         2.819473
 C        -0.715359        -1.123858         2.549417
 C        -0.910333        -0.692041         1.112939
 C         0.279863         0.267454         0.918618
 C         0.605259         1.112835        -0.305553
 O         1.266159        -0.085906        -0.166742
 C         0.813788         0.653266         2.228099
 H         0.820549        -0.420600         5.128257
 H         1.416428        -2.117132         2.139760
 H         0.255463        -2.612787         3.508182
 H        -1.477580        -1.639026         3.157931
 H        -0.945461        -1.470029         0.307402
 H        -1.800140         0.021902         0.999907
 H         0.004533         1.207526        -1.204097
 H         1.170884         2.032954        -0.281558
 H         1.887236         0.820459         2.349792
 H         0.291344         1.578819         2.549887
