19
Iteration:  1262
 O         0.321231        -0.149219         4.669195
 C         0.314094        -0.354704         3.300700
 C         0.019501        -1.746767         2.880143
 C        -0.985460        -0.721711         2.487724
 C        -0.960776        -0.419694         0.987990
 C         0.548649         0.183085         0.889929
 C         0.800064         1.096668        -0.236056
 O         1.325907        -0.263968        -0.222922
 C         1.084215         0.508025         2.273752
 H         0.727821        -0.970561         4.973393
 H         0.750514        -2.184530         2.293289
 H        -0.121261        -2.305904         3.778049
 H        -1.888747        -0.866962         3.014477
 H        -1.082634        -1.321843         0.354611
 H        -1.767672         0.318205         0.869924
 H        -0.014466         1.312901        -1.038309
 H         1.593735         1.799554        -0.281952
 H         2.168531         0.218722         2.101051
 H         0.945577         1.501556         2.508685
