19
Iteration:  4365charge 0 multiplicity 1
 O         0.238104        -0.082642         4.567979
 C         0.411513        -0.398315         3.139983
 C         0.429196        -1.814932         2.830137
 C        -0.844703        -0.992331         2.484344
 C        -1.072675        -0.350823         1.150954
 C         0.340530         0.283384         0.877488
 C         0.766288         1.066156        -0.294176
 O         1.216822        -0.301548        -0.036990
 C         1.023809         0.589931         2.299088
 H         0.850512         0.673751         4.666608
 H         1.070110        -2.288388         2.132115
 H         0.312658        -2.594155         3.623387
 H        -1.706819        -1.316500         3.064771
 H        -1.308746        -1.086863         0.279860
 H        -1.846919         0.404439         1.101891
 H         0.061383         1.092921        -1.215469
 H         1.563974         1.872907        -0.248399
 H         2.073335         0.752794         2.334868
 H         0.508511         1.458363         2.637168
