19
Iteration:  4646
 O         0.324318        -0.116711         4.567892
 C         0.317218        -0.356585         3.220572
 C         0.384502        -1.809214         2.896487
 C        -0.854444        -1.011173         2.516782
 C        -0.880613        -0.535616         1.133685
 C         0.414499         0.260834         0.921668
 C         0.591054         1.104161        -0.332864
 O         1.284332        -0.175678        -0.138580
 C         0.955110         0.601530         2.237991
 H         0.078645         0.812819         4.849441
 H         1.171594        -2.152056         2.152200
 H         0.178535        -2.453538         3.751882
 H        -1.738211        -1.335879         3.068848
 H        -0.809316        -1.268980         0.368362
 H        -1.803902         0.106768         0.896327
 H        -0.300485         1.183633        -0.938522
 H         1.167633         1.955230        -0.189153
 H         2.061123         0.612656         2.277203
 H         0.641209         1.590180         2.485083
