19
Iteration:  3041charge 0 multiplicity 1
 O         0.225094        -0.078044         4.528011
 C         0.352913        -0.347561         3.178968
 C         0.262597        -1.800375         2.809503
 C        -0.944373        -0.903604         2.498171
 C        -0.995515        -0.272766         1.093354
 C         0.433454         0.313312         0.895447
 C         0.869113         1.073800        -0.231207
 O         1.209403        -0.400146        -0.058661
 C         1.113069         0.543931         2.272865
 H        -0.035370        -0.919488         4.946154
 H         0.945113        -2.133284         2.082684
 H         0.238677        -2.544241         3.559198
 H        -1.799363        -0.969662         3.113029
 H        -1.367131        -0.943453         0.387309
 H        -1.555252         0.617973         1.209797
 H         0.111346         1.183054        -1.083518
 H         1.686540         1.753910        -0.046088
 H         2.156303         0.186152         2.272579
 H         1.076924         1.565180         2.565134
