19
Iteration:   107
 O         0.119201        -0.042750         4.579739
 C         0.287207        -0.401215         3.222529
 C         0.342576        -1.797166         2.678396
 C        -0.885007        -0.899395         2.515343
 C        -0.987695        -0.102581         1.192914
 C         0.475542         0.331194         0.981833
 C         0.942645         0.891111        -0.298168
 O         1.162671        -0.474920        -0.165179
 C         1.096538         0.591859         2.331125
 H         0.559005        -0.721422         5.088079
 H         0.905380        -1.957786         1.777335
 H         0.304488        -2.597199         3.353154
 H        -1.775599        -1.027220         3.110948
 H        -1.515472        -0.655239         0.316734
 H        -1.684948         0.801282         1.431036
 H         0.032723         1.034736        -1.035303
 H         1.769489         1.543909        -0.484202
 H         2.122742         0.280260         2.369800
 H         1.011223         1.637250         2.674939
