19
Iteration:  4119charge 0 multiplicity 1
 O         0.453363        -0.052074         4.577996
 C         0.394691        -0.350162         3.222740
 C         0.388608        -1.780694         2.711933
 C        -0.905880        -1.048973         2.467441
 C        -1.123849        -0.373179         1.139161
 C         0.326627         0.313931         0.933080
 C         0.795888         1.007835        -0.285888
 O         1.352923        -0.367257        -0.050628
 C         0.828819         0.719569         2.279989
 H        -0.309425        -0.494529         4.974630
 H         1.158132        -1.953235         1.843106
 H         0.484311        -2.609961         3.538437
 H        -1.770807        -1.238065         3.177434
 H        -1.338340        -1.106151         0.398027
 H        -1.921594         0.461915         1.340027
 H         0.052000         0.943357        -1.150343
 H         1.529606         1.798368        -0.341845
 H         1.918562         0.840557         2.376241
 H         0.357657         1.630568         2.509263
