19
Iteration:  3662charge 0 multiplicity 1
 O         0.341318        -0.215828         4.635831
 C         0.343890        -0.399292         3.291877
 C         0.242664        -1.805623         2.822052
 C        -0.904426        -0.901356         2.449722
 C        -1.011708        -0.302106         1.014069
 C         0.324515         0.421006         0.921693
 C         0.806974         0.877888        -0.381100
 O         1.313096        -0.351570        -0.020107
 C         0.970155         0.733151         2.307075
 H         0.953119         0.413703         4.982292
 H         0.810133        -2.107207         1.845667
 H         0.187029        -2.469758         3.702180
 H        -1.857578        -1.181229         2.920227
 H        -1.058031        -1.108073         0.151654
 H        -1.820044         0.402112         0.756052
 H         0.053216         0.939022        -1.184914
 H         1.535011         1.841190        -0.437857
 H         2.059074         0.515509         2.361825
 H         0.908612         1.765132         2.678569
