19
Iteration:  4697
 O         0.297947         0.029390         4.538253
 C         0.317010        -0.418210         3.220577
 C         0.478087        -1.829039         2.811237
 C        -0.825956        -1.069418         2.518698
 C        -0.928013        -0.527019         1.214959
 C         0.249326         0.326116         0.930439
 C         0.682360         1.087067        -0.418288
 O         1.311338        -0.204471        -0.102705
 C         0.886531         0.638378         2.337096
 H         0.474152        -0.651690         5.206547
 H         0.931932        -2.142302         1.864782
 H         0.583826        -2.550199         3.552677
 H        -1.757121        -1.248536         3.071835
 H        -1.099272        -1.225134         0.356967
 H        -1.729966         0.184257         1.211402
 H         0.252198         0.921025        -1.402812
 H         1.337659         2.087457        -0.393002
 H         1.980627         0.733340         2.152943
 H         0.472797         1.629401         2.758258
