19
Iteration:   268charge 0 multiplicity 1
 O         0.183437         0.012950         4.539706
 C         0.337501        -0.455660         3.214316
 C         0.179333        -1.859425         2.813613
 C        -0.945171        -0.876151         2.524866
 C        -0.963685        -0.254777         1.132640
 C         0.466135         0.266329         0.890616
 C         0.881877         1.088946        -0.272187
 O         1.260542        -0.397572        -0.122381
 C         1.094168         0.516618         2.259531
 H         0.960171        -0.249028         5.050238
 H         0.872813        -2.210148         2.053440
 H         0.108751        -2.527708         3.626555
 H        -1.846056        -0.869629         3.183444
 H        -1.217540        -0.943062         0.399040
 H        -1.795797         0.422854         1.041094
 H         0.006199         1.133831        -1.001837
 H         1.636587         1.845355        -0.099646
 H         2.152918         0.313843         2.409041
 H         0.918992         1.549690         2.619083
