19
Iteration:  3590
 O         0.232911         0.126315         4.586905
 C         0.253796        -0.406828         3.276435
 C         0.290314        -1.878838         2.997837
 C        -0.862764        -0.933203         2.499432
 C        -0.903019        -0.406669         1.077794
 C         0.443393         0.186943         0.819768
 C         0.872927         1.176640        -0.163508
 O         1.139585        -0.220146        -0.306839
 C         1.114281         0.345509         2.274207
 H        -0.426260        -0.505553         4.860205
 H         0.995711        -2.154411         2.244195
 H        -0.080443        -2.561867         3.748686
 H        -1.912206        -0.802474         2.952511
 H        -1.068685        -1.140437         0.337405
 H        -1.703017         0.419815         0.954456
 H         0.179918         1.446607        -0.971967
 H         1.581210         1.919277         0.055079
 H         2.118323        -0.096732         2.080220
 H         1.355253         1.405110         2.593914
