19
Iteration:   552charge 0 multiplicity 1
 O         0.399039        -0.196025         4.722179
 C         0.238283        -0.374357         3.244468
 C         0.178398        -1.741505         2.699860
 C        -1.019157        -0.778994         2.523867
 C        -1.028074        -0.316886         1.084432
 C         0.524097         0.255404         0.876307
 C         0.918951         0.990389        -0.313916
 O         1.311635        -0.389095        -0.052422
 C         0.944979         0.569851         2.267251
 H         1.025418         0.570731         4.865759
 H         0.549152        -1.806257         1.667953
 H         0.237476        -2.556604         3.361501
 H        -2.027842        -1.026616         2.858661
 H        -1.320890        -1.111812         0.258350
 H        -1.784049         0.468489         0.857604
 H        -0.056011         1.139089        -0.908232
 H         1.663499         1.718527        -0.437230
 H         2.066202         0.445670         2.277947
 H         0.698346         1.686028         2.629491
