19
Iteration:  4408
 O         0.200530        -0.142870         4.672304
 C         0.357564        -0.441798         3.300915
 C         0.496494        -1.731445         2.603357
 C        -0.794854        -1.037474         2.500727
 C        -1.051815        -0.224838         1.165478
 C         0.383714         0.386286         0.904131
 C         0.755498         0.904854        -0.525716
 O         1.197466        -0.399418         0.009757
 C         0.965243         0.702654         2.381549
 H         0.601386         0.684330         5.000253
 H         1.246123        -1.966827         1.861957
 H         0.360888        -2.646847         3.283214
 H        -1.633459        -1.414322         3.081830
 H        -1.300105        -0.983299         0.357937
 H        -1.808106         0.525266         1.279431
 H         0.013278         1.132536        -1.401829
 H         1.619460         1.621228        -0.586695
 H         2.061499         0.729699         2.361158
 H         0.630913         1.709725         2.616846
