19
Iteration:  2231
 O         0.305601        -0.108918         4.651370
 C         0.273334        -0.393939         3.198913
 C         0.288170        -1.806484         2.718576
 C        -0.934692        -0.877523         2.434558
 C        -1.021475        -0.162381         1.084566
 C         0.424512         0.335790         0.943182
 C         0.876503         0.972066        -0.290863
 O         1.223130        -0.457452        -0.040605
 C         1.005277         0.615906         2.321366
 H         0.867572        -0.843970         4.890304
 H         1.078912        -2.029516         1.961597
 H         0.097857        -2.484096         3.604641
 H        -1.813491        -1.158206         2.942960
 H        -1.471248        -0.657825         0.228693
 H        -1.660859         0.685767         1.173856
 H         0.241019         1.069611        -1.202446
 H         1.830725         1.608911        -0.456431
 H         2.073881         0.530782         2.339782
 H         0.858104         1.560444         2.551257
