19
Iteration:   152charge 0 multiplicity 1
 O         0.130344        -0.130232         4.652700
 C         0.316534        -0.372886         3.226139
 C         0.328933        -1.848628         2.853263
 C        -0.881629        -0.871125         2.477846
 C        -1.018665        -0.152224         1.172020
 C         0.423874         0.425279         0.869250
 C         1.032004         0.959409        -0.358689
 O         1.117689        -0.455726        -0.169592
 C         1.088035         0.531293         2.302762
 H         0.963221         0.108271         5.040762
 H         0.851209        -2.308885         2.003334
 H        -0.023170        -2.571636         3.560169
 H        -1.807871        -1.131385         3.055048
 H        -1.276496        -0.799507         0.224601
 H        -1.902406         0.575958         1.173981
 H         0.321977         1.400515        -1.168632
 H         1.936910         1.492935        -0.239088
 H         2.151041         0.409533         2.275936
 H         0.845861         1.563777         2.558044
