19
Iteration:   469charge 0 multiplicity 1
 O         0.270897        -0.030397         4.669104
 C         0.256581        -0.324868         3.218561
 C         0.401214        -1.715801         2.635619
 C        -0.889350        -0.952576         2.460697
 C        -1.077715        -0.128467         1.115929
 C         0.458073         0.272216         0.962762
 C         0.903007         0.917301        -0.289298
 O         1.136528        -0.515279        -0.045344
 C         1.012363         0.582548         2.285640
 H         0.203550        -0.902984         5.051610
 H         1.200713        -1.795792         1.836252
 H         0.336013        -2.654259         3.218365
 H        -1.752536        -1.282653         3.040362
 H        -1.233831        -0.665035         0.231358
 H        -1.662826         0.789396         1.265865
 H         0.340212         1.296076        -1.223704
 H         1.869680         1.606906        -0.293713
 H         2.081490         0.338256         2.366879
 H         0.827807         1.617698         2.577604
