19
Iteration:  1421charge 0 multiplicity 1
 O         0.509049        -0.066543         4.652770
 C         0.193675        -0.398246         3.233306
 C         0.055842        -1.877042         2.796536
 C        -1.075525        -0.864193         2.495244
 C        -1.019524        -0.230296         1.056259
 C         0.426486         0.320445         0.870089
 C         0.836394         0.962577        -0.392295
 O         1.478693        -0.269761        -0.037897
 C         1.016357         0.500967         2.335803
 H         0.516129        -0.925476         5.076677
 H         0.721295        -2.304669         1.965885
 H        -0.260639        -2.451215         3.697363
 H        -2.037046        -1.186789         2.699949
 H        -1.356697        -0.988136         0.275878
 H        -1.479703         0.802004         1.030005
 H         0.100958         0.990777        -1.161379
 H         1.471229         1.873928        -0.450182
 H         2.069570         0.393374         2.457894
 H         0.766283         1.634258         2.559932
