19
Iteration:  2754
 O         0.235105         0.082756         4.567105
 C         0.310177        -0.434703         3.300469
 C         0.029753        -1.900996         3.081200
 C        -0.874505        -0.860795         2.462678
 C        -0.795297        -0.450248         1.016343
 C         0.645914         0.191222         0.872851
 C         0.668691         1.233505        -0.100383
 O         1.149154        -0.135766        -0.405294
 C         1.263862         0.213207         2.281028
 H        -0.708410         0.294822         4.598738
 H         0.626814        -2.479765         2.286320
 H        -0.451721        -2.429615         3.915499
 H        -1.775714        -0.775010         2.919490
 H        -0.874094        -1.242746         0.296150
 H        -1.408629         0.321296         0.796448
 H        -0.225273         1.687211        -0.654287
 H         1.637309         1.955736        -0.038928
 H         2.256527        -0.175743         2.429981
 H         1.303619         1.225804         2.606872
