19
Iteration:  3692
 O         0.332933        -0.185698         4.570117
 C         0.333549        -0.346902         3.240613
 C         0.322707        -1.763267         2.619344
 C        -0.916782        -0.916278         2.586326
 C        -1.077201        -0.248975         1.155297
 C         0.425706         0.267823         0.890577
 C         0.900034         0.923384        -0.369706
 O         1.300943        -0.420401         0.064793
 C         0.815908         0.787736         2.268733
 H         1.203756        -0.522912         4.963604
 H         0.744414        -1.976956         1.571729
 H         0.525762        -2.505702         3.375344
 H        -1.819880        -1.248143         3.062359
 H        -1.306823        -1.048552         0.384881
 H        -1.697146         0.699698         1.014018
 H         0.213029         0.884284        -1.140058
 H         1.718786         1.586610        -0.257872
 H         1.874007         1.018404         2.562204
 H         0.261001         1.786472         2.342517
