19
Iteration:  1570
 O         0.255227        -0.109731         4.636352
 C         0.320751        -0.401931         3.241646
 C         0.199623        -1.824733         2.795710
 C        -0.946179        -0.922517         2.453293
 C        -0.973271        -0.177136         1.074303
 C         0.380978         0.374084         0.887980
 C         0.897204         1.055935        -0.370286
 O         1.253199        -0.356504        -0.038511
 C         1.053224         0.476787         2.287560
 H         0.962894        -0.562421         5.107902
 H         0.909883        -2.278061         2.096581
 H        -0.082131        -2.387455         3.655096
 H        -1.843224        -0.941792         3.036187
 H        -1.177810        -0.952151         0.339781
 H        -1.780476         0.547149         0.996630
 H         0.211771         1.134208        -1.193015
 H         1.769458         1.772711        -0.232099
 H         2.194326         0.113562         2.233057
 H         1.013396         1.473381         2.676989
