19
Iteration:  2601
 O         0.217260        -0.042890         4.566048
 C         0.290365        -0.456585         3.206788
 C         0.154962        -1.842289         2.794945
 C        -0.955179        -0.856093         2.548736
 C        -1.021257        -0.301527         1.145693
 C         0.405004         0.298312         0.910156
 C         0.854220         0.996250        -0.316335
 O         1.381467        -0.264644        -0.108337
 C         1.113478         0.500912         2.293246
 H         1.086483        -0.277042         4.922967
 H         0.720343        -2.168208         1.913776
 H         0.171369        -2.617550         3.632353
 H        -1.909180        -0.981845         3.103211
 H        -1.327342        -0.956921         0.298836
 H        -1.799574         0.514000         1.207474
 H         0.099080         1.186286        -1.049118
 H         1.609211         1.795948        -0.374356
 H         2.156885         0.241192         2.099519
 H         1.018676         1.542003         2.648365
