19
Iteration:  3016
 O         0.357482        -0.086612         4.591119
 C         0.330013        -0.410120         3.195347
 C         0.163110        -1.931611         2.783671
 C        -0.921868        -0.930143         2.464591
 C        -1.050037        -0.133626         1.117472
 C         0.392056         0.425529         0.877418
 C         0.910832         0.929741        -0.368031
 O         1.340910        -0.351504         0.019343
 C         0.972963         0.628696         2.267561
 H         0.502780        -0.906792         5.060491
 H         0.821062        -2.456818         2.071327
 H        -0.024681        -2.613014         3.596120
 H        -1.850504        -1.146366         3.032625
 H        -1.348597        -0.838098         0.288011
 H        -1.721012         0.711223         1.380671
 H         0.287118         0.729687        -1.233347
 H         1.537303         1.818792        -0.393145
 H         2.052217         0.604212         2.436398
 H         0.518777         1.594076         2.661042
