19
Iteration:   717charge 0 multiplicity 1
 O         0.460779        -0.032189         4.513117
 C         0.264935        -0.433236         3.225827
 C         0.051560        -1.865167         2.833875
 C        -1.051283        -0.913775         2.497761
 C        -1.000375        -0.177082         1.090608
 C         0.379889         0.298477         0.914710
 C         0.895018         0.959907        -0.250843
 O         1.418877        -0.330927        -0.043788
 C         1.008862         0.525868         2.250653
 H         0.877908        -0.732503         4.990101
 H         0.674936        -2.410408         2.028082
 H        -0.165749        -2.375409         3.793133
 H        -2.082967        -1.010641         2.867375
 H        -1.380339        -0.838434         0.221143
 H        -1.638603         0.670589         1.095842
 H         0.404901         1.203284        -1.243274
 H         1.596878         1.873170        -0.193328
 H         2.078334         0.697379         2.166824
 H         0.492627         1.415671         2.738642
