19
Iteration:  3262
 O         0.264282        -0.181155         4.706472
 C         0.259931        -0.357486         3.288749
 C         0.311558        -1.778760         2.750115
 C        -0.947598        -0.947022         2.460182
 C        -0.989526        -0.188987         1.163268
 C         0.496250         0.307726         0.850010
 C         0.913582         1.033049        -0.314307
 O         1.168584        -0.432293        -0.151744
 C         1.053831         0.527841         2.273812
 H        -0.025385         0.713154         4.897646
 H         1.136346        -1.964386         1.959006
 H         0.032620        -2.621467         3.401442
 H        -1.759596        -1.161251         3.096607
 H        -1.392680        -0.756089         0.348319
 H        -1.641238         0.725999         1.114815
 H         0.261511         1.235097        -1.166590
 H         1.845062         1.728671        -0.284566
 H         2.157182         0.618917         2.310561
 H         0.789196         1.548107         2.513282
