19
Iteration:    66charge 0 multiplicity 1
 O         0.443265        -0.080189         4.508227
 C         0.324328        -0.430733         3.141229
 C         0.088862        -1.934683         2.791085
 C        -0.965220        -0.860752         2.436826
 C        -1.064283        -0.191138         1.052224
 C         0.325860         0.422142         0.967748
 C         0.896328         0.891707        -0.349117
 O         1.396355        -0.341590         0.131839
 C         0.950720         0.637177         2.299804
 H         1.095152        -0.656397         4.923806
 H         0.732264        -2.538571         2.129902
 H        -0.179266        -2.524022         3.636237
 H        -1.894119        -0.905054         3.035342
 H        -1.246935        -0.867686         0.213660
 H        -1.684906         0.597625         1.086171
 H         0.159868         0.916348        -1.129450
 H         1.606528         1.609017        -0.373880
 H         2.004423         0.568462         2.156105
 H         0.805228         1.571045         2.731297
