19
Iteration:   506charge 0 multiplicity 1
 O         0.165230        -0.061231         4.500713
 C         0.354270        -0.445587         3.174949
 C         0.321768        -1.943179         2.755311
 C        -0.863530        -1.000796         2.449096
 C        -1.021260        -0.034722         1.168889
 C         0.415740         0.430777         0.913361
 C         0.867642         0.921118        -0.371882
 O         1.183752        -0.438200         0.111503
 C         1.048103         0.627186         2.286547
 H         1.015252        -0.140208         4.937547
 H         0.926002        -2.364027         1.970485
 H         0.030827        -2.643847         3.547156
 H        -1.475653        -1.047744         3.376903
 H        -1.282105        -0.467330         0.131214
 H        -1.797832         0.660387         1.407117
 H         0.253896         0.915019        -1.256300
 H         1.865444         1.487270        -0.481241
 H         2.199543         0.643315         2.181560
 H         0.704764         1.709376         2.602192
