19
Iteration:   538
 O         0.301614        -0.217811         4.612752
 C         0.295887        -0.343588         3.233998
 C         0.214731        -1.806487         2.698831
 C        -0.981439        -0.847833         2.535372
 C        -1.002725        -0.183521         1.122007
 C         0.397590         0.287979         0.892573
 C         0.856589         0.922499        -0.338024
 O         1.328176        -0.410143        -0.050452
 C         1.009150         0.636466         2.318869
 H         0.957508         0.466826         4.855316
 H         0.832595        -2.177273         1.874952
 H         0.056985        -2.614876         3.415758
 H        -1.820623        -0.920677         3.270373
 H        -1.200942        -0.974209         0.406133
 H        -1.688409         0.619319         1.069816
 H         0.343833         1.039408        -1.306414
 H         1.631598         1.742741        -0.278921
 H         2.148828         0.579414         2.373917
 H         0.688889         1.712303         2.487145
