19
Iteration:  3829
 O         0.391008         0.003006         4.612780
 C         0.346884        -0.396304         3.198549
 C         0.192253        -1.962146         2.945014
 C        -0.864183        -0.978858         2.447024
 C        -0.885378        -0.418802         1.003143
 C         0.390913         0.363295         0.931096
 C         0.681705         1.118780        -0.316068
 O         1.221524        -0.243045        -0.097842
 C         1.050176         0.457652         2.314265
 H         0.003595         0.874058         4.676121
 H         0.833754        -2.136270         2.121753
 H         0.035939        -2.515121         3.741615
 H        -1.755941        -1.097367         3.003521
 H        -0.895118        -1.071139         0.139358
 H        -1.742289         0.229812         0.784102
 H        -0.108601         1.039683        -1.118831
 H         1.360493         1.939829        -0.241983
 H         2.115567         0.395673         2.330635
 H         0.916025         1.398655         2.775791
