19
Iteration:  4309
 O         0.321518        -0.006228         4.569636
 C         0.343585        -0.348903         3.136419
 C         0.265047        -1.834401         2.966497
 C        -0.843029        -0.920100         2.540253
 C        -0.922079        -0.525938         1.026097
 C         0.374077         0.166746         0.922305
 C         0.577505         1.105147        -0.218549
 O         1.357883        -0.167346        -0.174183
 C         0.999795         0.571237         2.255014
 H         0.730968        -0.760460         5.084230
 H         0.975487        -2.184456         2.181161
 H        -0.035810        -2.582577         3.717966
 H        -1.761379        -0.974193         3.082218
 H        -0.991764        -1.435188         0.376631
 H        -1.663573         0.255099         0.870292
 H        -0.248762         1.281686        -0.964456
 H         1.225988         2.071292        -0.193726
 H         2.048713         0.411763         2.138844
 H         0.821911         1.560272         2.564197
