19
Iteration:  1344charge 0 multiplicity 1
 O         0.136765         0.084157         4.550303
 C         0.227350        -0.498693         3.196510
 C         0.276365        -1.908430         2.915461
 C        -0.952318        -1.041250         2.482487
 C        -0.997934        -0.156893         1.194013
 C         0.539362         0.217530         0.902421
 C         0.924003         1.120431        -0.273800
 O         1.213625        -0.240201        -0.217904
 C         1.145363         0.337946         2.295942
 H         0.928718         0.586316         4.713884
 H         0.802601        -2.434103         2.062772
 H        -0.150024        -2.581020         3.656652
 H        -1.913502        -1.196197         2.966189
 H        -1.516255        -0.585027         0.276477
 H        -1.563895         0.791726         1.371900
 H         0.130516         1.368804        -0.902155
 H         1.724143         1.858752        -0.073208
 H         2.098374        -0.180645         2.153864
 H         1.406955         1.442141         2.619014
