19
Iteration:  4984charge 0 multiplicity 1
 O         0.314874         0.095585         4.593312
 C         0.261293        -0.329771         3.204875
 C         0.580608        -1.856137         2.873835
 C        -0.713221        -1.205681         2.466862
 C        -0.920027        -0.654886         1.107592
 C         0.305474         0.281492         0.837765
 C         0.569100         1.127799        -0.322460
 O         1.292365        -0.135518        -0.125698
 C         0.820550         0.721512         2.340759
 H         0.241731        -0.732573         5.106837
 H         1.305090        -1.997163         2.048459
 H         0.685880        -2.571993         3.729700
 H        -1.705370        -1.466296         2.921824
 H        -0.945880        -1.516701         0.454938
 H        -1.969117        -0.213932         1.059135
 H        -0.185716         1.059936        -1.027749
 H         1.132209         2.030177        -0.122212
 H         1.935182         0.741595         2.313046
 H         0.455832         1.731544         2.643695
