19
Iteration:   991
 O         0.153009         0.092166         4.527999
 C         0.234138        -0.424084         3.164070
 C         0.241848        -1.903124         2.908108
 C        -0.921486        -0.981224         2.389012
 C        -0.856700        -0.143490         1.162058
 C         0.547641         0.260603         0.964165
 C         0.800649         1.084045        -0.253037
 O         1.130586        -0.319477        -0.157124
 C         1.219903         0.348470         2.304954
 H         0.410763        -0.548104         5.171566
 H         0.956425        -2.082304         2.153177
 H         0.053763        -2.608008         3.649094
 H        -1.973692        -1.145057         2.823145
 H        -1.425166        -0.698528         0.316377
 H        -1.478067         0.678241         1.456403
 H         0.054084         1.522511        -0.985027
 H         1.776518         1.591824        -0.472637
 H         2.316833         0.128332         2.207707
 H         1.079501         1.330750         2.793099
