19
Iteration:  3450
 O         0.221705         0.065471         4.522622
 C         0.316802        -0.434523         3.215517
 C         0.199623        -1.910313         2.910708
 C        -0.938554        -0.965378         2.545284
 C        -0.939269        -0.236159         1.195218
 C         0.490603         0.227207         0.874965
 C         0.844247         1.091229        -0.270682
 O         1.250018        -0.299171        -0.192931
 C         1.125811         0.443590         2.201705
 H        -0.136137        -0.599438         5.126862
 H         0.911943        -2.219433         2.132640
 H        -0.106688        -2.601300         3.640563
 H        -1.852867        -0.927611         3.247315
 H        -1.236607        -0.803003         0.308594
 H        -1.655125         0.653091         1.278572
 H         0.099515         1.504173        -0.958411
 H         1.652621         1.731870        -0.131103
 H         2.209291         0.385429         2.184954
 H         0.885568         1.451666         2.538842
