19
Iteration:  3724charge 0 multiplicity 1
 O         0.409421        -0.071646         4.487442
 C         0.336895        -0.370109         3.171620
 C         0.421105        -1.811446         2.653360
 C        -0.839747        -1.027917         2.412895
 C        -1.126477        -0.155800         1.137013
 C         0.268432         0.460251         0.911934
 C         0.909212         0.870803        -0.335965
 O         1.229296        -0.420391         0.243669
 C         0.859004         0.687921         2.295703
 H         0.364218        -0.769343         5.123035
 H         1.167512        -2.231136         1.901539
 H         0.354736        -2.552827         3.422630
 H        -1.759446        -1.463189         2.807504
 H        -1.371963        -0.881755         0.370906
 H        -1.951970         0.588683         1.227040
 H         0.392312         0.873906        -1.277494
 H         1.723432         1.554514        -0.344711
 H         1.964357         0.628363         2.318539
 H         0.464905         1.709041         2.526069
