19
Iteration:  4504charge 0 multiplicity 1
 O         0.534478        -0.082803         4.626584
 C         0.297335        -0.309967         3.183504
 C         0.295911        -1.805501         2.772259
 C        -0.932526        -1.082633         2.437901
 C        -0.929106        -0.417759         1.060341
 C         0.338563         0.305857         0.965719
 C         0.695328         0.989603        -0.323308
 O         1.298300        -0.309331         0.004145
 C         0.888175         0.715736         2.245639
 H        -0.398358         0.003858         4.962955
 H         0.913595        -2.118497         1.842845
 H         0.517185        -2.547721         3.596974
 H        -1.821775        -1.223621         3.063584
 H        -0.967992        -0.880649         0.106947
 H        -1.759084         0.407203         1.166419
 H        -0.036878         1.126957        -1.139165
 H         1.419690         1.754763        -0.149890
 H         2.022910         0.705062         2.477059
 H         0.460662         1.721846         2.602785
