19
Iteration:  1292charge 0 multiplicity 1
 O         0.194038         0.003773         4.518395
 C         0.327617        -0.462962         3.198645
 C         0.040326        -1.857263         2.858388
 C        -0.929858        -0.813174         2.579698
 C        -0.895302        -0.407696         1.143906
 C         0.519607         0.312133         0.935165
 C         0.858664         1.142841        -0.254771
 O         1.225905        -0.269713        -0.215566
 C         1.164424         0.413683         2.288787
 H         0.782022        -0.525570         5.109553
 H         0.691893        -2.268871         1.922925
 H        -0.037886        -2.591729         3.684192
 H        -1.865154        -0.782836         3.116472
 H        -0.967736        -1.164506         0.436849
 H        -1.790535         0.234718         0.989911
 H         0.118721         1.371125        -1.064849
 H         1.735709         1.803902        -0.200538
 H         2.173246         0.211524         2.151317
 H         0.917410         1.465903         2.730630
