19
Iteration:   946charge 0 multiplicity 1
 O         0.202942        -0.038319         4.584496
 C         0.356522        -0.432890         3.259981
 C         0.103834        -1.836894         2.920000
 C        -0.995255        -0.839621         2.620594
 C        -0.962327        -0.375223         1.099891
 C         0.444221         0.274390         0.832684
 C         0.961699         1.184575        -0.259918
 O         1.248186        -0.309161        -0.239952
 C         1.129785         0.413666         2.216559
 H         0.839076        -0.356068         5.206393
 H         0.674954        -2.164643         2.076820
 H        -0.181914        -2.563431         3.710601
 H        -1.900909        -0.931536         3.187664
 H        -1.139695        -1.165911         0.276380
 H        -1.744670         0.366779         0.919790
 H         0.262086         1.518583        -1.038153
 H         1.708865         2.004741         0.010255
 H         2.252930         0.132928         2.190251
 H         1.052006         1.486305         2.389566
