19
Iteration:  3164charge 0 multiplicity 1
 O         0.447021         0.013548         4.684445
 C         0.189115        -0.354094         3.204124
 C         0.096245        -1.824635         2.926566
 C        -1.040917        -0.859651         2.483126
 C        -0.800622        -0.451282         0.988435
 C         0.534446         0.167707         0.890668
 C         0.753652         1.126773        -0.221693
 O         1.245028        -0.203863        -0.295342
 C         1.048485         0.452515         2.326121
 H         0.185892        -0.839155         5.073063
 H         0.822455        -2.331001         2.180066
 H        -0.184179        -2.481101         3.804346
 H        -2.041134        -0.847652         3.031131
 H        -0.872460        -1.141916         0.201576
 H        -1.494579         0.264596         0.617582
 H        -0.175228         1.327165        -0.794787
 H         1.553872         1.922704         0.153063
 H         2.087559         0.048482         2.467500
 H         1.191534         1.468011         2.590282
