19
Iteration:  3117
 O         0.321335         0.062331         4.445249
 C         0.303241        -0.468690         3.167471
 C         0.075481        -1.973611         3.014309
 C        -0.879775        -0.910910         2.514665
 C        -0.962644        -0.364635         1.101758
 C         0.400314         0.296516         0.873583
 C         0.737242         1.199811        -0.206060
 O         1.368705        -0.210853        -0.116634
 C         1.170592         0.389568         2.237623
 H        -0.163576        -0.577515         5.047322
 H         0.500928        -2.515236         2.243448
 H        -0.094291        -2.478953         3.947288
 H        -1.855933        -0.663417         3.010160
 H        -1.240579        -1.048405         0.287597
 H        -1.891975         0.301237         1.110374
 H         0.201232         1.214513        -1.182262
 H         1.438336         1.960116         0.083297
 H         2.215209         0.153148         1.955423
 H         1.233084         1.445116         2.518234
