19
Iteration:  4125charge 0 multiplicity 1
 O         0.436032        -0.042427         4.577640
 C         0.349374        -0.394440         3.229310
 C         0.394096        -1.790572         2.718304
 C        -0.867937        -0.996962         2.547345
 C        -1.112983        -0.369597         1.162111
 C         0.360635         0.315369         0.873300
 C         0.761879         0.993193        -0.311814
 O         1.358300        -0.308971        -0.024736
 C         0.841622         0.628835         2.263953
 H        -0.412441        -0.499414         4.882821
 H         1.023058        -1.939602         1.893686
 H         0.405356        -2.579228         3.366224
 H        -1.608852        -1.245296         3.259099
 H        -1.294447        -1.108210         0.313597
 H        -1.754747         0.481164         1.111028
 H         0.001355         0.991059        -1.054128
 H         1.570189         1.753606        -0.363626
 H         1.905093         0.933090         2.155578
 H         0.255710         1.628740         2.527894
