19
Iteration:  1039charge 0 multiplicity 1
 O         0.223302        -0.136472         4.564100
 C         0.318661        -0.356950         3.228312
 C         0.138363        -1.860549         2.735619
 C        -0.939569        -0.859339         2.564115
 C        -0.976519        -0.211633         1.118131
 C         0.465633         0.286568         0.918610
 C         0.937909         1.016340        -0.339239
 O         1.248540        -0.385408        -0.070216
 C         1.060312         0.551462         2.298434
 H         1.117698        -0.178788         5.032658
 H         0.636784        -2.241243         1.821436
 H        -0.008710        -2.638399         3.570825
 H        -1.741170        -0.750104         3.249747
 H        -1.326967        -0.934819         0.413991
 H        -1.659049         0.665705         1.032629
 H         0.221125         1.175147        -1.185173
 H         1.702957         1.830072        -0.277895
 H         2.097880         0.479152         2.236810
 H         0.854837         1.569526         2.639845
