19
Iteration:  3922charge 0 multiplicity 1
 O         0.289515         0.151694         4.523925
 C         0.331531        -0.472333         3.254793
 C         0.233932        -1.923245         2.985936
 C        -0.910242        -1.059940         2.459463
 C        -0.822556        -0.355094         1.071451
 C         0.483874         0.306173         0.954680
 C         0.615616         1.124708        -0.230391
 O         1.180700        -0.158607        -0.256930
 C         1.134160         0.463057         2.265216
 H        -0.103045        -0.638711         5.030011
 H         1.009009        -2.391739         2.256495
 H         0.030563        -2.621462         3.923861
 H        -1.787931        -1.308850         3.003679
 H        -0.788022        -1.207263         0.491388
 H        -1.662723         0.099623         0.691221
 H        -0.304525         1.191915        -0.787727
 H         1.404504         1.924196        -0.373691
 H         2.144747         0.056557         2.355851
 H         1.245484         1.448131         2.719167
