19
Iteration:  3330charge 0 multiplicity 1
 O         0.511899        -0.063199         4.555055
 C         0.262275        -0.463040         3.177901
 C         0.174458        -1.780766         2.570750
 C        -1.087636        -0.902771         2.447588
 C        -1.051494        -0.111661         1.147149
 C         0.306983         0.474264         0.973414
 C         0.942307         0.813683        -0.292610
 O         1.438909        -0.455275         0.097534
 C         0.899951         0.645246         2.335689
 H         0.870669        -0.892406         4.995794
 H         0.810742        -2.008163         1.730837
 H        -0.083911        -2.637139         3.289849
 H        -1.954458        -1.171744         3.084883
 H        -1.306296        -0.614473         0.231766
 H        -1.841283         0.630141         1.214977
 H         0.117345         0.641864        -1.116438
 H         1.718362         1.492979        -0.688124
 H         1.954855         0.568155         2.509420
 H         0.655085         1.613458         2.718122
