19
Iteration:  3037
 O         0.237060        -0.103657         4.519886
 C         0.356230        -0.352861         3.178971
 C         0.265493        -1.804406         2.827931
 C        -0.979833        -0.917384         2.474417
 C        -0.978866        -0.253796         1.115103
 C         0.424830         0.313105         0.891922
 C         0.851768         1.041084        -0.256227
 O         1.238633        -0.388748        -0.024388
 C         1.105071         0.580580         2.256922
 H         0.001812        -0.906249         5.021085
 H         0.968660        -2.221979         2.063207
 H         0.098659        -2.569379         3.609352
 H        -1.862231        -0.988064         3.143247
 H        -1.440301        -1.020053         0.397110
 H        -1.548833         0.715268         1.303841
 H         0.222078         1.364615        -1.071743
 H         1.696625         1.710661        -0.119650
 H         2.146083         0.255529         2.033968
 H         1.076198         1.686358         2.545190
