19
Iteration:  2125
 O         0.265835        -0.191889         4.630948
 C         0.274113        -0.358656         3.204469
 C         0.176775        -1.817805         2.672061
 C        -0.981018        -0.797593         2.566345
 C        -0.964150        -0.300293         1.149279
 C         0.432881         0.400918         0.917161
 C         0.868809         0.928756        -0.417007
 O         1.354137        -0.357342        -0.046100
 C         1.039194         0.644291         2.332781
 H         0.869393        -0.891226         4.852861
 H         0.721857        -2.275694         1.822409
 H         0.246661        -2.507187         3.558458
 H        -1.973463        -0.875801         2.875894
 H        -1.102410        -1.160513         0.480219
 H        -1.692570         0.560140         1.218707
 H        -0.045914         1.024311        -0.943691
 H         1.616135         1.667871        -0.406212
 H         2.081327         0.507899         2.171829
 H         0.707983         1.767218         2.638869
