19
Iteration:  1785
 O         0.309192        -0.175108         4.647515
 C         0.336715        -0.362823         3.190408
 C         0.102006        -1.788759         2.705748
 C        -0.991644        -0.799978         2.560201
 C        -0.973906        -0.288593         1.134341
 C         0.480523         0.316851         0.888481
 C         0.835337         0.923814        -0.361067
 O         1.436458        -0.326161        -0.052692
 C         0.971670         0.620316         2.297847
 H         0.734037        -1.025198         4.946484
 H         0.460259        -2.057296         1.737497
 H        -0.033750        -2.642106         3.432425
 H        -1.862983        -0.788989         3.187793
 H        -1.213412        -1.033045         0.355922
 H        -1.712932         0.353559         0.995141
 H         0.079254         0.990293        -1.086940
 H         1.457517         1.864197        -0.316933
 H         2.015295         0.703025         2.310005
 H         0.534403         1.630130         2.658431
