19
Iteration:  3459
 O         0.256759         0.106779         4.567565
 C         0.336938        -0.470597         3.241765
 C         0.134090        -1.965986         2.893204
 C        -0.938257        -0.929676         2.561658
 C        -0.935954        -0.355962         1.152861
 C         0.487592         0.308641         0.908452
 C         0.861812         1.167556        -0.255245
 O         1.218594        -0.323868        -0.226184
 C         1.145618         0.502993         2.222833
 H        -0.308205        -0.567709         4.990267
 H         0.680284        -2.426250         2.020087
 H         0.028606        -2.759839         3.653076
 H        -1.947737        -0.905905         3.099109
 H        -1.165690        -1.041349         0.338717
 H        -1.685436         0.553918         1.107374
 H         0.228142         1.247380        -1.106669
 H         1.699694         1.840359        -0.201961
 H         2.249186         0.271357         2.173948
 H         1.023512         1.607468         2.479999
