19
Iteration:   938charge 0 multiplicity 1
 O         0.249547        -0.068217         4.568883
 C         0.327018        -0.386902         3.173233
 C         0.068988        -1.845006         2.906272
 C        -1.015951        -0.828896         2.575501
 C        -0.936603        -0.347922         1.105982
 C         0.488352         0.240302         0.842889
 C         0.897524         1.157049        -0.216686
 O         1.268013        -0.266319        -0.148986
 C         1.107170         0.425759         2.191713
 H         1.045025        -0.156091         5.094436
 H         0.569315        -2.292433         2.076960
 H        -0.077553        -2.465440         3.729823
 H        -1.976385        -0.884941         3.248947
 H        -0.950933        -1.294499         0.466756
 H        -1.859681         0.206246         0.990246
 H         0.285429         1.346483        -1.173775
 H         1.765850         1.896374        -0.091624
 H         2.027723        -0.001196         2.147231
 H         1.154656         1.453444         2.565803
