19
Iteration:  4974
 O         0.220057         0.110497         4.595359
 C         0.360019        -0.399635         3.263902
 C         0.572680        -1.832583         2.820265
 C        -0.694812        -1.132632         2.532951
 C        -0.915002        -0.697018         1.116676
 C         0.280037         0.267856         0.903611
 C         0.609154         1.108915        -0.307746
 O         1.266576        -0.090475        -0.163397
 C         0.808505         0.666688         2.248522
 H         0.738661        -0.528368         5.121370
 H         1.407161        -2.077085         2.130751
 H         0.269504        -2.631007         3.569758
 H        -1.540969        -1.632988         3.123897
 H        -0.963656        -1.442546         0.392739
 H        -1.818332        -0.021912         0.993401
 H         0.002572         1.189250        -1.138381
 H         1.134229         2.083991        -0.292962
 H         1.939546         0.777390         2.394634
 H         0.303704         1.620403         2.576717
