19
Iteration:   808
 O         0.203191         0.006062         4.527585
 C         0.240736        -0.395606         3.204492
 C         0.404005        -1.888660         2.660369
 C        -0.857790        -0.986977         2.369749
 C        -0.976825         0.000644         1.250737
 C         0.401282         0.389628         0.937653
 C         0.918900         0.885031        -0.332812
 O         1.166077        -0.497919         0.007520
 C         0.986753         0.588489         2.410468
 H         0.857478        -0.602546         4.975288
 H         1.028284        -2.074038         1.874379
 H         0.148719        -2.816042         3.188864
 H        -1.742977        -1.428164         2.852294
 H        -1.483387        -0.441555         0.437582
 H        -1.569368         0.894132         1.559747
 H         0.278254         1.081695        -1.179899
 H         1.828993         1.413426        -0.486562
 H         2.038727         0.462453         2.256947
 H         0.800995         1.692765         2.679824
