19
Iteration:   149charge 0 multiplicity 1
 O         0.116441        -0.151072         4.684281
 C         0.320005        -0.340194         3.251835
 C         0.362009        -1.859969         2.874208
 C        -0.886210        -0.862213         2.461000
 C        -1.027677        -0.155151         1.139729
 C         0.449734         0.420910         0.859120
 C         1.040767         0.945525        -0.341186
 O         1.090057        -0.459738        -0.179868
 C         1.074171         0.526790         2.271522
 H         0.991311         0.082096         5.099819
 H         0.837382        -2.233101         1.984726
 H         0.012743        -2.564188         3.569913
 H        -1.744987        -1.122927         3.038782
 H        -1.303943        -0.739633         0.234913
 H        -1.889886         0.633202         1.160006
 H         0.345579         1.432450        -1.147386
 H         1.946191         1.605833        -0.293831
 H         2.173774         0.330827         2.246394
 H         0.830504         1.654962         2.566783
