19
Iteration:  2386
 O         0.075068         0.029067         4.547500
 C         0.296538        -0.497820         3.231002
 C         0.183978        -1.944337         2.988185
 C        -0.858058        -0.899329         2.490794
 C        -0.892632        -0.184281         1.121774
 C         0.517694         0.377639         0.882916
 C         0.698523         1.118946        -0.321100
 O         1.288088        -0.245195        -0.154304
 C         1.225914         0.287902         2.268571
 H         0.945312        -0.125310         5.030709
 H         0.609744        -2.642780         2.143945
 H        -0.248800        -2.649874         3.721982
 H        -1.900757        -0.886307         3.037404
 H        -1.264003        -0.736552         0.229112
 H        -1.413350         0.734289         1.244132
 H        -0.129232         1.160983        -1.142884
 H         1.472798         1.932380        -0.539541
 H         2.170743        -0.295613         2.187160
 H         1.386134         1.292090         2.574776
