19
Iteration:  4169charge 0 multiplicity 1
 O         0.356701        -0.046383         4.549050
 C         0.300181        -0.411209         3.229720
 C         0.413985        -1.828456         2.949900
 C        -0.925453        -0.988278         2.469713
 C        -0.909449        -0.403136         1.046171
 C         0.395807         0.371250         0.956277
 C         0.632287         1.012988        -0.325778
 O         1.245578        -0.196587        -0.107702
 C         1.057821         0.553608         2.231193
 H        -0.469713        -0.267895         5.091561
 H         0.944635        -2.381857         2.190963
 H         0.214740        -2.434349         3.722853
 H        -1.787835        -1.245646         2.984188
 H        -0.773383        -1.248426         0.251349
 H        -1.708147         0.283769         1.077931
 H        -0.334314         0.994234        -0.782136
 H         1.314822         1.866541        -0.508927
 H         2.157049         0.425512         2.318716
 H         0.739043         1.644983         2.626484
