19
Iteration:  3146charge 0 multiplicity 1
 O         0.425943         0.070499         4.561015
 C         0.223971        -0.474200         3.320125
 C         0.029503        -1.844211         2.876270
 C        -0.997518        -0.825908         2.518527
 C        -0.892772        -0.476591         1.038568
 C         0.499539         0.262506         0.924071
 C         0.756879         1.160750        -0.219952
 O         1.306012        -0.194554        -0.271107
 C         1.145119         0.377896         2.353716
 H         0.120802        -0.584138         5.222307
 H         0.673360        -2.117908         2.017986
 H        -0.241608        -2.555243         3.615123
 H        -1.952760        -0.990094         2.821006
 H        -0.843558        -1.488219         0.468341
 H        -1.807508         0.000589         0.629633
 H         0.000739         1.314823        -0.981685
 H         1.449797         1.952075        -0.290519
 H         2.225588         0.236359         2.248531
 H         1.002331         1.488698         2.597926
