19
Iteration:  1961charge 0 multiplicity 1
 O         0.405832         0.043800         4.480433
 C         0.234550        -0.433649         3.125205
 C        -0.018222        -1.934084         3.006393
 C        -1.019094        -0.897115         2.481266
 C        -0.965583        -0.393005         1.067281
 C         0.431434         0.249424         0.830315
 C         0.862328         1.191667        -0.199058
 O         1.382108        -0.198230        -0.073330
 C         1.098351         0.421286         2.227434
 H         0.784625        -0.746238         4.932747
 H         0.661591        -2.499856         2.232196
 H        -0.082293        -2.523897         3.968251
 H        -1.964420        -0.875867         3.115482
 H        -1.023809        -1.279135         0.410753
 H        -1.713009         0.505828         1.010499
 H         0.231839         1.287257        -1.040285
 H         1.480522         1.989642         0.195916
 H         2.118620         0.204036         2.161856
 H         0.924501         1.387996         2.747942
