19
Iteration:  4506charge 0 multiplicity 1
 O         0.522603        -0.094643         4.629066
 C         0.277911        -0.312153         3.159280
 C         0.302655        -1.808175         2.785466
 C        -0.917475        -1.084638         2.444760
 C        -0.928775        -0.397410         1.077145
 C         0.346730         0.294555         0.956656
 C         0.687307         1.003850        -0.304407
 O         1.293539        -0.317710        -0.005656
 C         0.901610         0.731984         2.243766
 H        -0.387390         0.068536         4.940828
 H         0.949508        -2.206174         1.896224
 H         0.555683        -2.507651         3.574560
 H        -1.826295        -1.191204         3.079390
 H        -0.917865        -0.879545         0.066148
 H        -1.751956         0.367483         1.084058
 H        -0.106483         1.073005        -1.195064
 H         1.416336         1.773432        -0.151249
 H         1.993508         0.628227         2.516460
 H         0.494957         1.754669         2.589720
