19
Iteration:  1736
 O         0.379955         0.055995         4.590376
 C         0.303400        -0.466151         3.270596
 C         0.067429        -1.976547         2.943909
 C        -0.974643        -0.906031         2.402872
 C        -1.026692        -0.322297         0.989752
 C         0.431055         0.339848         0.897936
 C         0.884298         1.141073        -0.223348
 O         1.301247        -0.237332        -0.106608
 C         1.090046         0.426906         2.248045
 H         0.410953        -0.667326         5.239191
 H         0.997070        -2.399081         2.509034
 H        -0.433071        -2.494147         3.736712
 H        -1.942258        -0.963137         2.984502
 H        -0.993483        -1.012669         0.092487
 H        -2.052881         0.324747         0.811378
 H         0.307056         1.361681        -1.156350
 H         1.691151         1.859724        -0.220342
 H         2.176572         0.017847         2.107736
 H         1.150467         1.464611         2.522202
