19
Iteration:  2769
 O         0.231730        -0.008156         4.585407
 C         0.338786        -0.427277         3.186489
 C         0.011876        -1.875270         3.078586
 C        -0.958444        -0.834593         2.535639
 C        -0.818368        -0.491264         1.038095
 C         0.481968         0.139682         0.894885
 C         0.731662         1.275041        -0.165973
 O         1.279019        -0.097789        -0.343183
 C         1.301645         0.249013         2.235880
 H        -0.494335         0.606498         4.698327
 H         0.561497        -2.548010         2.425810
 H        -0.154005        -2.312666         4.064690
 H        -2.010239        -0.571247         2.989041
 H        -0.986469        -1.344692         0.359282
 H        -1.761742         0.168263         0.794799
 H        -0.080174         1.448219        -0.854347
 H         1.342284         2.082785         0.075633
 H         2.343601        -0.164258         2.093649
 H         1.512422         1.331344         2.550690
