19
Iteration:   865
 O         0.238326        -0.154581         4.570795
 C         0.353860        -0.410611         3.191838
 C         0.168899        -1.812352         2.847520
 C        -1.009604        -0.866407         2.523749
 C        -1.021145        -0.241513         1.172229
 C         0.393339         0.294404         0.924481
 C         0.916760         1.016744        -0.349331
 O         1.327446        -0.365722        -0.159557
 C         1.084149         0.601285         2.308023
 H         0.962922        -0.569589         5.048405
 H         0.737047        -2.394457         2.036726
 H         0.064674        -2.399225         3.735449
 H        -1.902955        -0.700813         3.229458
 H        -1.221866        -0.996025         0.452449
 H        -1.749343         0.655979         1.062028
 H         0.165200         1.288508        -1.096969
 H         1.748883         1.644052        -0.238566
 H         2.235470         0.535427         2.092731
 H         0.776753         1.700875         2.398613
