19
Iteration:   797charge 0 multiplicity 1
 O         0.182680        -0.087503         4.550379
 C         0.314247        -0.483639         3.210065
 C         0.371639        -1.836955         2.660645
 C        -0.882862        -0.952074         2.428117
 C        -1.002611        -0.035319         1.200951
 C         0.449499         0.369929         0.927569
 C         0.911057         0.894629        -0.380991
 O         1.175746        -0.496519         0.058070
 C         0.999098         0.665079         2.257097
 H         0.849466        -0.420816         5.135208
 H         1.165997        -2.014640         2.055347
 H         0.085204        -2.618114         3.372795
 H        -1.835809        -1.060121         2.928226
 H        -1.577563        -0.272148         0.346972
 H        -1.462003         0.872860         1.686329
 H         0.196080         0.999671        -1.174105
 H         1.720040         1.569804        -0.198245
 H         2.056212         0.580941         2.454898
 H         0.647761         1.660876         2.736719
