19
Iteration:  3144
 O         0.417886         0.084187         4.559218
 C         0.247448        -0.495005         3.304606
 C         0.020253        -1.845858         2.870924
 C        -0.998757        -0.823355         2.537852
 C        -0.898873        -0.483002         1.039188
 C         0.497496         0.254910         0.927933
 C         0.770065         1.161500        -0.229520
 O         1.302331        -0.179257        -0.254266
 C         1.141133         0.379142         2.346089
 H         0.078664        -0.604201         5.206641
 H         0.719427        -2.157579         1.995055
 H        -0.278572        -2.562667         3.650360
 H        -1.991076        -1.033626         2.890820
 H        -0.868507        -1.401786         0.422412
 H        -1.762202        -0.027055         0.639543
 H        -0.045611         1.218654        -0.979187
 H         1.531180         2.019314        -0.286725
 H         2.207128         0.272987         2.151080
 H         1.055736         1.453072         2.589668
