19
Iteration:  1306
 O         0.192280         0.057135         4.524403
 C         0.361670        -0.458627         3.246103
 C         0.146156        -1.993293         2.929797
 C        -0.974469        -0.919324         2.461699
 C        -0.963089        -0.255346         1.068333
 C         0.441799         0.297349         0.898010
 C         0.876699         1.118850        -0.263408
 O         1.226983        -0.235992        -0.136602
 C         1.173318         0.403489         2.271837
 H         1.011389        -0.134708         5.027757
 H         0.720544        -2.538253         2.237668
 H        -0.216873        -2.563552         3.782181
 H        -1.814940        -0.934311         3.117731
 H        -1.122003        -1.036541         0.315302
 H        -1.657493         0.577503         0.983899
 H        -0.006477         1.423703        -0.972275
 H         1.648307         1.868879        -0.243829
 H         2.213304        -0.042917         2.272495
 H         1.271504         1.353859         2.644548
