19
Iteration:  4897
 O         0.205146         0.106509         4.627454
 C         0.348408        -0.408349         3.304224
 C         0.579361        -1.848864         2.822985
 C        -0.704619        -1.104688         2.509776
 C        -0.913926        -0.569592         1.093493
 C         0.299304         0.257980         0.915264
 C         0.556209         1.060957        -0.452985
 O         1.266933        -0.108041        -0.134274
 C         0.915752         0.654287         2.325468
 H         0.207726        -0.731493         5.171128
 H         1.319260        -2.151771         2.010064
 H         0.320261        -2.706316         3.426472
 H        -1.623554        -1.536736         2.946268
 H        -0.986829        -1.392138         0.506875
 H        -1.758275         0.128022         0.976408
 H        -0.303316         1.167449        -1.076515
 H         1.174117         1.933162        -0.388445
 H         2.048025         0.661124         2.186171
 H         0.592146         1.591310         2.856196
