19
Iteration:  1890charge 0 multiplicity 1
 O         0.156713        -0.215630         4.561464
 C         0.257226        -0.279264         3.214857
 C         0.300894        -1.833355         2.732129
 C        -0.880383        -0.927206         2.491952
 C        -1.024053        -0.150877         1.117650
 C         0.441888         0.457674         0.959332
 C         0.889321         0.934018        -0.353841
 O         1.203471        -0.457333        -0.059074
 C         1.118614         0.637852         2.356334
 H         1.025776        -0.497595         4.898459
 H         0.908697        -2.125548         1.960235
 H         0.305497        -2.530148         3.541447
 H        -1.854475        -1.083170         2.912005
 H        -1.203298        -0.884028         0.317894
 H        -1.779103         0.594973         1.373638
 H         0.143281         0.956142        -1.181714
 H         1.808394         1.507426        -0.379122
 H         2.248904         0.495434         2.461775
 H         0.887767         1.688559         2.561569
