19
Iteration:  1216charge 0 multiplicity 1
 O         0.278905         0.061115         4.461365
 C         0.359032        -0.534027         3.180329
 C         0.074879        -1.932209         2.793835
 C        -0.952937        -0.904766         2.516330
 C        -1.007577        -0.252432         1.161112
 C         0.408625         0.372362         0.920257
 C         0.899919         1.024535        -0.303805
 O         1.317951        -0.299279        -0.001823
 C         1.126656         0.476249         2.290663
 H         1.027418        -0.287387         5.035737
 H         0.531256        -2.477766         1.833073
 H        -0.328147        -2.690016         3.489308
 H        -1.870790        -0.789805         3.163964
 H        -1.315976        -0.931470         0.422459
 H        -1.709474         0.622742         1.291662
 H         0.160992         1.191573        -1.160945
 H         1.649947         1.876774        -0.331323
 H         2.191809         0.344601         2.272802
 H         0.720169         1.381197         2.649280
