19
Iteration:  1354
 O         0.083556         0.060558         4.552289
 C         0.260249        -0.430489         3.237420
 C         0.242434        -2.010061         2.834706
 C        -0.945526        -0.916599         2.538785
 C        -0.968131        -0.204560         1.155298
 C         0.473106         0.283324         0.931595
 C         0.880938         1.133125        -0.207302
 O         1.210326        -0.311879        -0.274633
 C         1.227652         0.339090         2.281635
 H         0.891498         0.566905         4.752388
 H         0.843460        -2.257391         1.952666
 H         0.139971        -2.659903         3.684406
 H        -1.820383        -1.131836         3.175480
 H        -1.316124        -0.817004         0.242751
 H        -1.590888         0.678171         1.391785
 H         0.356360         1.484301        -1.044071
 H         1.834576         1.746548        -0.158184
 H         2.308056         0.074670         2.403548
 H         1.096404         1.430740         2.609298
