19
Iteration:  3458
 O         0.250343         0.102387         4.562834
 C         0.332814        -0.469024         3.239751
 C         0.143266        -1.957114         2.894210
 C        -0.943816        -0.937834         2.565232
 C        -0.938165        -0.339424         1.162017
 C         0.493393         0.298153         0.910783
 C         0.855957         1.160314        -0.258116
 O         1.223714        -0.323671        -0.222683
 C         1.140960         0.495449         2.209669
 H        -0.278727        -0.573213         4.984577
 H         0.719182        -2.399743         2.036584
 H         0.001004        -2.777514         3.663382
 H        -1.912352        -0.898089         3.104246
 H        -1.163689        -1.001747         0.322392
 H        -1.667065         0.562848         1.131452
 H         0.213949         1.291303        -1.098429
 H         1.727877         1.851628        -0.191807
 H         2.262496         0.298312         2.168258
 H         1.008792         1.609082         2.476426
