19
Iteration:  2187charge 0 multiplicity 1
 O         0.202485        -0.163991         4.519129
 C         0.316198        -0.367789         3.145948
 C         0.395107        -1.846663         2.588718
 C        -0.915791        -0.929697         2.504050
 C        -1.062454        -0.139054         1.218694
 C         0.365396         0.364240         0.959723
 C         1.092032         0.844277        -0.319590
 O         1.086078        -0.456963         0.061873
 C         1.009674         0.733057         2.323338
 H         1.001228         0.064972         4.969263
 H         0.861618        -1.946144         1.584780
 H         0.449881        -2.739371         3.298639
 H        -1.805722        -1.148811         3.060444
 H        -1.605584        -0.580616         0.401923
 H        -1.732013         0.653811         1.350949
 H         0.487331         1.228961        -1.182343
 H         2.102650         1.458797        -0.057625
 H         2.079399         0.831907         2.280065
 H         0.637773         1.623499         2.674474
