19
Iteration:  2445
 O         0.322277        -0.121519         4.562176
 C         0.336157        -0.371998         3.172914
 C         0.146448        -1.816141         2.821815
 C        -0.979358        -0.853208         2.482382
 C        -1.043095        -0.298689         1.108557
 C         0.323716         0.323360         0.899932
 C         0.965453         1.059421        -0.173544
 O         1.331814        -0.356611        -0.094770
 C         1.004785         0.536252         2.234615
 H         1.050387        -0.631377         4.924765
 H         0.696674        -2.143095         2.025092
 H        -0.059330        -2.451942         3.662046
 H        -1.750772        -0.792480         3.156716
 H        -1.187061        -1.207340         0.478840
 H        -1.997211         0.294628         0.933878
 H         0.497687         1.404606        -1.144868
 H         1.884398         1.604563         0.049938
 H         2.076892         0.450628         2.202138
 H         0.777979         1.597534         2.396215
