19
Iteration:  3862charge 0 multiplicity 1
 O         0.261831         0.006088         4.570391
 C         0.293072        -0.367489         3.169351
 C         0.152723        -1.915566         3.010350
 C        -0.883350        -1.000324         2.617237
 C        -0.959453        -0.536838         1.088085
 C         0.422925         0.188247         0.809557
 C         0.716972         1.197804        -0.210173
 O         1.325377        -0.111930        -0.257413
 C         1.123218         0.461900         2.236567
 H         1.059953         0.543360         4.756564
 H         0.782139        -2.197830         2.206211
 H         0.121573        -2.579434         3.731287
 H        -1.783730        -1.031365         3.208745
 H        -1.150553        -1.424156         0.472150
 H        -1.668285         0.304293         1.020076
 H         0.089612         1.353708        -1.125673
 H         1.232015         2.094586         0.053280
 H         2.172420         0.236167         2.294457
 H         0.861528         1.485822         2.441966
