19
Iteration:  4664
 O         0.266491        -0.108106         4.653592
 C         0.375863        -0.368935         3.222883
 C         0.399044        -1.843878         2.892052
 C        -0.826784        -1.048839         2.447516
 C        -0.918796        -0.540820         1.001705
 C         0.364248         0.234998         0.890128
 C         0.513682         1.063404        -0.275975
 O         1.298215        -0.181126        -0.122823
 C         1.005074         0.733732         2.338328
 H         1.002283         0.560209         4.662656
 H         0.874171        -2.277229         2.018867
 H         0.327765        -2.313245         3.831428
 H        -1.805090        -1.012975         2.953246
 H        -1.223273        -1.338408         0.271665
 H        -1.637512         0.254346         0.949569
 H        -0.007220         0.831290        -1.185287
 H         1.210443         2.017771        -0.320605
 H         2.109077         0.784538         2.238929
 H         0.672417         1.783689         2.616422
