19
Iteration:  4687charge 0 multiplicity 1
 O         0.249001        -0.001579         4.563283
 C         0.331672        -0.418424         3.238624
 C         0.415361        -1.839883         2.824571
 C        -0.812822        -1.048612         2.602370
 C        -0.889409        -0.486800         1.174710
 C         0.317604         0.402836         0.861940
 C         0.627364         1.041242        -0.374607
 O         1.338019        -0.157839        -0.094763
 C         0.898711         0.574023         2.234206
 H         1.009621        -0.486359         4.911743
 H         1.102091        -2.064709         1.987005
 H         0.252347        -2.526363         3.607146
 H        -1.736210        -1.439361         3.042315
 H        -0.997552        -1.364951         0.558238
 H        -1.821488         0.073335         1.048698
 H        -0.091846         0.924040        -1.185418
 H         1.330683         1.911929        -0.438472
 H         1.984032         0.785214         2.336858
 H         0.421369         1.479554         2.618556
