19
Iteration:  2830
 O         0.379957         0.000267         4.530887
 C         0.265495        -0.401079         3.271278
 C         0.011361        -1.855290         2.940483
 C        -0.991132        -0.934716         2.451024
 C        -0.916563        -0.474802         1.013582
 C         0.517798         0.241157         0.874339
 C         0.718327         1.182324        -0.096332
 O         1.343258        -0.228611        -0.221208
 C         1.122527         0.449074         2.319344
 H         1.280383         0.359386         4.627575
 H         0.609078        -2.610228         2.307913
 H        -0.402662        -2.328337         3.864234
 H        -2.000545        -0.798219         2.683812
 H        -0.840052        -1.278328         0.238692
 H        -1.702180         0.188983         0.808792
 H        -0.198635         1.215325        -0.793704
 H         1.500505         2.077057        -0.149909
 H         2.189041         0.370526         2.198027
 H         0.770795         1.401318         2.697481
