19
Iteration:  4828charge 0 multiplicity 1
 O         0.438114        -0.028594         4.667003
 C         0.353569        -0.419520         3.208062
 C         0.564429        -1.833819         2.768722
 C        -0.856312        -1.146408         2.492367
 C        -0.975292        -0.530250         1.067934
 C         0.264819         0.364082         0.923033
 C         0.730581         1.021540        -0.419047
 O         1.285093        -0.189975         0.006699
 C         0.729543         0.758470         2.287078
 H        -0.359062         0.424141         4.997752
 H         0.962414        -1.899901         1.794335
 H         0.822848        -2.673171         3.445232
 H        -1.761288        -1.490635         2.988381
 H        -1.070048        -1.422404         0.366998
 H        -1.902441         0.069964         1.070160
 H        -0.062283         0.959272        -1.215673
 H         1.410451         1.885396        -0.410195
 H         1.820455         0.694207         2.439351
 H         0.349517         1.806932         2.537758
