19
Iteration:  3404charge 0 multiplicity 1
 O         0.157938        -0.060633         4.606303
 C         0.337280        -0.415585         3.263890
 C         0.264864        -1.825641         2.677585
 C        -0.875508        -0.903869         2.479431
 C        -0.960052        -0.220380         1.162962
 C         0.452909         0.403026         0.952299
 C         0.930320         0.937436        -0.405294
 O         1.120878        -0.373488        -0.018539
 C         1.067159         0.488915         2.319338
 H         1.051255         0.054337         4.912451
 H         0.843756        -2.018998         1.772974
 H         0.184308        -2.579191         3.528567
 H        -1.849625        -1.068952         2.899423
 H        -1.257336        -0.869457         0.339407
 H        -1.722179         0.658930         1.227093
 H         0.270910         1.122401        -1.208303
 H         1.783461         1.623453        -0.552220
 H         2.177052         0.332838         2.308421
 H         0.949359         1.543280         2.695888
