19
Iteration:  1271
 O         0.271758        -0.136021         4.656495
 C         0.310901        -0.365016         3.246827
 C         0.058189        -1.816207         2.845525
 C        -0.969281        -0.722418         2.589491
 C        -0.908139        -0.412668         1.021112
 C         0.470156         0.187010         0.872306
 C         0.815502         1.094015        -0.222849
 O         1.293436        -0.271175        -0.249359
 C         1.143178         0.543190         2.279950
 H         0.585523        -0.784115         5.279028
 H         0.658475        -2.313218         1.970342
 H        -0.134462        -2.462459         3.710370
 H        -1.910999        -0.569332         3.091886
 H        -0.984004        -1.307818         0.517541
 H        -1.610198         0.238915         0.466361
 H        -0.011903         1.402607        -0.935005
 H         1.654168         1.764768        -0.102572
 H         2.158636         0.283612         2.338375
 H         1.012666         1.593925         2.284035
