19
Iteration:  1382
 O         0.116986        -0.044999         4.578039
 C         0.386686        -0.419779         3.241077
 C         0.209121        -1.868371         2.808021
 C        -0.923645        -0.738992         2.518440
 C        -0.931054        -0.344647         1.051756
 C         0.474376         0.255791         0.949218
 C         0.884217         1.106632        -0.207713
 O         1.152293        -0.322458        -0.155508
 C         1.184841         0.481382         2.261813
 H         0.781785        -0.523871         5.163992
 H         0.519833        -2.408869         1.932878
 H        -0.280877        -2.522727         3.550262
 H        -1.793602        -0.948957         3.199496
 H        -1.047642        -1.112191         0.307118
 H        -1.723502         0.387204         0.889608
 H         0.227106         1.349282        -1.128803
 H         1.847474         1.599713        -0.262295
 H         2.290895         0.340836         2.241182
 H         0.955690         1.483354         2.598731
