19
Iteration:   811charge 0 multiplicity 1
 O         0.204711         0.031137         4.555248
 C         0.232740        -0.397927         3.166839
 C         0.388248        -1.875520         2.664697
 C        -0.835958        -0.988694         2.366482
 C        -0.996438        -0.006964         1.241244
 C         0.393966         0.395601         0.980024
 C         0.941986         0.892108        -0.335617
 O         1.156035        -0.494551        -0.009112
 C         0.991995         0.566954         2.419195
 H         0.835319        -0.619062         4.950245
 H         1.009519        -2.087998         1.727268
 H         0.225608        -2.809080         3.222689
 H        -1.704649        -1.582741         2.850916
 H        -1.444827        -0.512885         0.388635
 H        -1.623898         0.955205         1.524170
 H         0.203121         1.022970        -1.175427
 H         1.867289         1.399515        -0.486678
 H         2.154198         0.402378         2.253682
 H         0.805530         1.645666         2.701572
