19
Iteration:  1953charge 0 multiplicity 1
 O         0.410606         0.015088         4.434507
 C         0.242953        -0.449252         3.145920
 C        -0.000391        -1.906701         2.968864
 C        -1.039949        -0.894734         2.567843
 C        -0.954131        -0.390305         1.089858
 C         0.405863         0.248374         0.884052
 C         0.840125         1.177838        -0.202162
 O         1.451975        -0.216897        -0.086253
 C         1.067862         0.454311         2.252358
 H         0.789292        -0.705744         5.009122
 H         0.348446        -2.391623         2.049981
 H        -0.100827        -2.517958         3.895164
 H        -2.033359        -0.940765         3.028713
 H        -1.268582        -1.042082         0.275191
 H        -1.681864         0.302528         0.836926
 H         0.254052         1.283724        -1.242057
 H         1.502403         2.021831         0.094480
 H         2.233742         0.315739         2.157381
 H         0.922087         1.459013         2.563912
