19
Iteration:  4240
 O         0.299122         0.152307         4.555945
 C         0.333860        -0.376934         3.186158
 C         0.364309        -1.883212         2.971329
 C        -0.814189        -1.094938         2.451922
 C        -0.967395        -0.546763         1.059623
 C         0.408022         0.208202         0.931883
 C         0.679055         1.232770        -0.183909
 O         1.169248        -0.169457        -0.175185
 C         1.137830         0.453683         2.212377
 H        -0.602237        -0.083504         4.948242
 H         1.013775        -2.389853         2.211176
 H         0.051460        -2.643619         3.746215
 H        -1.831293        -1.255896         2.935706
 H        -1.205667        -1.210691         0.321268
 H        -1.709777         0.266928         1.304633
 H        -0.082799         1.390904        -0.943369
 H         1.445697         2.041543        -0.102592
 H         2.211328         0.179107         2.130460
 H         1.031037         1.498588         2.522807
