19
Iteration:  2314
 O         0.289067        -0.033206         4.630829
 C         0.239186        -0.355107         3.182801
 C         0.117324        -1.835247         2.931386
 C        -1.019659        -0.896710         2.507518
 C        -0.935889        -0.400602         1.060402
 C         0.497471         0.275116         0.880932
 C         0.917268         1.123712        -0.197528
 O         1.244939        -0.251654        -0.322048
 C         1.112259         0.457391         2.346799
 H         1.234982        -0.138084         4.919567
 H         0.452872        -2.340400         2.075981
 H        -0.091397        -2.569500         3.687585
 H        -1.980057        -1.039258         2.966283
 H        -0.862001        -1.364454         0.536008
 H        -1.876305         0.237458         0.934962
 H         0.143954         1.588006        -0.812827
 H         1.784197         1.657234         0.034690
 H         2.110834        -0.062253         2.258082
 H         0.907052         1.596807         2.628607
