19
Iteration:  3736
 O         0.433842        -0.013305         4.540824
 C         0.268812        -0.476843         3.152387
 C         0.479870        -1.838488         2.693830
 C        -0.918315        -1.025743         2.444570
 C        -1.065677        -0.216270         1.060773
 C         0.314540         0.442092         0.962146
 C         0.937075         0.893095        -0.418386
 O         1.133391        -0.384184         0.224649
 C         0.901844         0.745394         2.310042
 H         0.021008        -0.844847         4.940146
 H         1.159893        -1.941423         1.782053
 H         0.214063        -2.622103         3.431161
 H        -1.650967        -1.650120         2.976118
 H        -1.338669        -0.613575         0.034205
 H        -1.849980         0.544892         1.362361
 H         0.280307         0.826213        -1.220386
 H         1.851215         1.438224        -0.439027
 H         2.010829         0.761218         2.122583
 H         0.715900         1.611637         3.031316
