19
Iteration:  3354charge 0 multiplicity 1
 O         0.416755        -0.227492         4.621457
 C         0.251250        -0.388622         3.202008
 C         0.211796        -1.782498         2.649219
 C        -1.004832        -0.841776         2.513035
 C        -1.064913        -0.118076         1.134537
 C         0.384768         0.282789         0.838958
 C         0.972822         0.893128        -0.414041
 O         1.359859        -0.444469         0.116164
 C         0.866236         0.720382         2.328629
 H         1.389880        -0.404502         4.668010
 H         0.778984        -2.080296         1.785469
 H        -0.023397        -2.517057         3.372913
 H        -1.939319        -1.100889         3.140301
 H        -1.669652        -0.694407         0.409943
 H        -1.502359         0.847370         1.165122
 H         0.378817         0.892558        -1.414943
 H         1.746365         1.655222        -0.350170
 H         1.943591         0.669556         2.448488
 H         0.574112         1.714589         2.677634
