19
Iteration:  2124
 O         0.265450        -0.192131         4.627990
 C         0.276408        -0.361341         3.209509
 C         0.176067        -1.814320         2.679325
 C        -0.976123        -0.787755         2.569635
 C        -0.963798        -0.307962         1.143192
 C         0.432002         0.388875         0.922586
 C         0.870936         0.934618        -0.414975
 O         1.349873        -0.354479        -0.050456
 C         1.039613         0.648477         2.325352
 H         0.860932        -0.917456         4.852207
 H         0.700417        -2.289251         1.809732
 H         0.244296        -2.534319         3.561492
 H        -1.972920        -0.873346         2.898322
 H        -1.125451        -1.157126         0.460417
 H        -1.697483         0.524276         1.168398
 H        -0.047001         1.022767        -0.920005
 H         1.649441         1.697621        -0.356042
 H         2.080790         0.501980         2.194467
 H         0.708470         1.788629         2.602851
