19
Iteration:   916charge 0 multiplicity 1
 O         0.404378        -0.051423         4.507275
 C         0.299573        -0.426301         3.197508
 C        -0.026092        -1.882426         2.862536
 C        -1.056357        -0.782665         2.508661
 C        -0.943044        -0.404451         0.976751
 C         0.416342         0.343565         0.967459
 C         0.795318         1.027076        -0.252917
 O         1.384669        -0.265075        -0.066165
 C         1.167529         0.448454         2.343406
 H         1.332489         0.173859         4.805556
 H         0.521415        -2.298276         2.080507
 H        -0.334956        -2.528796         3.657085
 H        -2.072030        -0.807250         3.067651
 H        -1.068066        -1.171647         0.156911
 H        -1.687374         0.383264         0.869911
 H        -0.079309         1.151680        -0.990408
 H         1.245643         2.047993        -0.145042
 H         2.138168         0.157569         2.307608
 H         1.053036         1.499166         2.616368
