19
Iteration:  3762
 O         0.352470        -0.063150         4.587429
 C         0.311853        -0.383955         3.233281
 C         0.392118        -1.785573         2.628351
 C        -0.786904        -0.962384         2.476861
 C        -1.011532        -0.176094         1.139621
 C         0.375281         0.353435         0.960957
 C         0.799830         0.931498        -0.333616
 O         1.205777        -0.454753        -0.005991
 C         0.923787         0.666293         2.331506
 H        -0.442456        -0.596974         4.891157
 H         1.035517        -1.996773         1.820017
 H         0.275006        -2.436984         3.504618
 H        -1.589610        -1.546990         2.923312
 H        -1.133818        -0.872475         0.247943
 H        -1.926420         0.427633         1.261415
 H         0.042370         1.036832        -1.130209
 H         1.723314         1.530057        -0.280921
 H         2.005512         0.799763         2.344634
 H         0.538637         1.647662         2.600059
