19
Iteration:  1334
 O         0.177828         0.061948         4.512598
 C         0.285299        -0.425886         3.279949
 C         0.179476        -1.899451         2.944636
 C        -0.940832        -1.049764         2.364775
 C        -0.953628        -0.161397         1.180404
 C         0.431476         0.295526         0.884179
 C         0.875144         1.131925        -0.246046
 O         1.274101        -0.267249        -0.178594
 C         1.116832         0.264848         2.244860
 H         1.019473         0.463750         4.664807
 H         1.191058        -2.369056         2.464046
 H        -0.135748        -2.584243         3.764765
 H        -1.858450        -1.258327         2.884966
 H        -1.524871        -0.576383         0.344159
 H        -1.444814         0.790683         1.557625
 H         0.061381         1.401086        -0.870889
 H         1.703687         1.849479        -0.196124
 H         2.038797        -0.262916         2.245857
 H         1.292301         1.383770         2.678984
