19
Iteration:  3703charge 0 multiplicity 1
 O         0.356478        -0.123772         4.549616
 C         0.366896        -0.320069         3.132113
 C         0.351315        -1.778233         2.623784
 C        -0.920432        -0.959706         2.557546
 C        -1.061498        -0.234307         1.083505
 C         0.325301         0.299668         0.947973
 C         0.869731         0.857059        -0.270683
 O         1.331847        -0.455555         0.088631
 C         0.832013         0.809743         2.306382
 H         0.885140        -0.834407         4.974595
 H         0.935222        -1.958503         1.649278
 H         0.360855        -2.664220         3.255820
 H        -1.711654        -1.287906         3.227908
 H        -1.587805        -0.718375         0.208487
 H        -1.717622         0.667800         1.318761
 H         0.396765         1.053829        -1.168634
 H         1.677750         1.568621        -0.247566
 H         1.898687         1.059659         2.117704
 H         0.199013         1.711643         2.615280
