19
Iteration:   587
 O         0.437108        -0.161419         4.554485
 C         0.288354        -0.404185         3.159602
 C         0.066412        -1.887870         2.923217
 C        -1.003144        -0.814943         2.470877
 C        -0.977758        -0.317706         1.042228
 C         0.427742         0.320663         0.922986
 C         0.909600         1.082181        -0.275812
 O         1.301685        -0.336031        -0.041424
 C         1.030107         0.541764         2.235386
 H         0.294523         0.811927         4.629944
 H         0.521469        -2.439381         2.102838
 H         0.001833        -2.530658         3.866756
 H        -1.923371        -0.898938         3.056998
 H        -1.051593        -1.148577         0.252810
 H        -1.868426         0.393897         1.142517
 H         0.060267         1.215979        -0.989337
 H         1.777383         1.778524        -0.174337
 H         2.101606         0.353777         2.157719
 H         0.883889         1.600004         2.726686
