19
Iteration:   633charge 0 multiplicity 1
 O         0.254330         0.025803         4.617505
 C         0.316245        -0.384011         3.294860
 C         0.160697        -1.877080         2.820470
 C        -0.983400        -0.922569         2.510020
 C        -0.945761        -0.198572         1.126339
 C         0.517667         0.276869         0.937557
 C         0.816682         1.044724        -0.265707
 O         1.268969        -0.311621        -0.272914
 C         1.165913         0.359822         2.266138
 H        -0.704554        -0.003426         4.915877
 H         0.907299        -2.365433         2.166860
 H        -0.057756        -2.633504         3.550829
 H        -1.906287        -0.920104         3.071299
 H        -1.247583        -0.875845         0.343340
 H        -1.466856         0.843108         1.092998
 H        -0.021627         1.185798        -0.920594
 H         1.642664         1.830436        -0.278488
 H         2.185512        -0.024910         2.220706
 H         1.232359         1.371243         2.767344
