19
Iteration:   564charge 0 multiplicity 1
 O         0.451789        -0.183534         4.682329
 C         0.235133        -0.361954         3.267037
 C         0.113098        -1.726104         2.681408
 C        -1.090107        -0.777048         2.503078
 C        -0.956238        -0.346338         1.027211
 C         0.412694         0.255234         0.945119
 C         0.878084         1.011958        -0.298475
 O         1.319609        -0.366344        -0.102411
 C         0.998054         0.541033         2.330872
 H         1.002986         0.641435         4.674661
 H         0.901465        -2.070349         2.002485
 H        -0.003803        -2.486622         3.482534
 H        -1.892503        -1.162421         3.131257
 H        -1.030574        -1.283101         0.329277
 H        -1.708668         0.485837         0.849488
 H         0.228300         1.173079        -1.233336
 H         1.752108         1.633035        -0.171032
 H         2.098406         0.430379         2.388157
 H         0.726805         1.691410         2.522795
