19
Iteration:    55charge 0 multiplicity 1
 O         0.481561        -0.171291         4.557775
 C         0.272509        -0.424434         3.167493
 C         0.072432        -1.812986         2.833078
 C        -1.090216        -0.914455         2.531418
 C        -1.018636        -0.219869         1.072670
 C         0.379587         0.418014         0.865231
 C         0.924228         0.920710        -0.355503
 O         1.412041        -0.360075         0.073467
 C         0.937981         0.682736         2.253001
 H         1.234110        -0.714733         4.761652
 H         0.571498        -2.189884         1.930263
 H         0.065544        -2.363091         3.732903
 H        -2.033442        -0.924130         3.096082
 H        -1.158310        -0.946044         0.263755
 H        -1.779051         0.407414         0.923020
 H         0.421896         1.044049        -1.281354
 H         1.583227         1.664822        -0.210309
 H         2.001387         0.629586         2.261739
 H         0.572401         1.520066         2.742752
