19
Iteration:  2131
 O         0.270109        -0.190600         4.631654
 C         0.268649        -0.352257         3.184810
 C         0.176272        -1.825530         2.663318
 C        -0.982335        -0.866249         2.524858
 C        -0.957141        -0.225313         1.179307
 C         0.442360         0.437078         0.904213
 C         0.832388         0.890456        -0.408365
 O         1.364970        -0.371084        -0.017554
 C         1.018333         0.638678         2.349292
 H         0.991118        -0.781789         4.994470
 H         0.816649        -2.112195         1.819796
 H         0.173955        -2.434590         3.557577
 H        -2.033838        -0.961257         2.975075
 H        -1.112422        -1.044557         0.453142
 H        -1.668484         0.580361         1.249155
 H         0.025184         0.975311        -1.236452
 H         1.609542         1.728323        -0.704829
 H         2.134486         0.545165         2.206850
 H         0.825935         1.552743         2.819814
