19
Iteration:  2128charge 0 multiplicity 1
 O         0.266391        -0.190008         4.634370
 C         0.269996        -0.351578         3.191350
 C         0.178114        -1.827049         2.661873
 C        -0.984807        -0.830457         2.548247
 C        -0.962509        -0.268230         1.166099
 C         0.437559         0.426283         0.905030
 C         0.855758         0.907716        -0.412427
 O         1.362553        -0.365109        -0.032414
 C         1.027850         0.641957         2.348991
 H         0.938203        -0.850987         4.912148
 H         0.769681        -2.200205         1.847718
 H         0.224057        -2.428077         3.529846
 H        -2.033309        -0.906831         2.895479
 H        -1.073306        -1.133037         0.500205
 H        -1.676654         0.607002         1.291200
 H        -0.049406         1.022562        -1.092337
 H         1.589928         1.673000        -0.566940
 H         2.130828         0.527595         2.148927
 H         0.760224         1.611054         2.721335
