19
Iteration:  1300charge 0 multiplicity 1
 O         0.206790         0.017976         4.489403
 C         0.349723        -0.466441         3.229599
 C         0.071191        -1.927795         2.880719
 C        -0.939429        -0.883528         2.539957
 C        -0.928216        -0.339122         1.110505
 C         0.458836         0.316249         0.916571
 C         0.864634         1.144103        -0.269786
 O         1.229948        -0.248372        -0.168565
 C         1.155706         0.395933         2.300920
 H         0.800213        -0.206800         5.199883
 H         0.829735        -2.346154         2.122360
 H        -0.143649        -2.512209         3.786328
 H        -1.900038        -0.817441         3.124610
 H        -1.110630        -1.158411         0.343231
 H        -1.685018         0.449077         0.909988
 H         0.083198         1.416575        -0.908337
 H         1.804582         1.762443        -0.359279
 H         2.226829         0.113475         2.291258
 H         1.217820         1.539468         2.573063
