19
Iteration:  1251
 O         0.383925        -0.119645         4.677198
 C         0.252260        -0.339853         3.219218
 C         0.080267        -1.761575         2.962097
 C        -1.039243        -0.826062         2.433746
 C        -0.929031        -0.342926         1.047217
 C         0.448306         0.250759         0.859864
 C         0.817565         1.077084        -0.303890
 O         1.361037        -0.263259        -0.167396
 C         1.094955         0.432202         2.282060
 H         0.912824        -0.914482         4.992695
 H         0.585635        -2.240621         2.185299
 H        -0.399649        -2.412509         3.651142
 H        -2.007256        -0.898919         2.861293
 H        -1.143061        -1.125199         0.272207
 H        -1.638265         0.470607         0.775634
 H        -0.032592         1.103298        -1.092078
 H         1.411402         1.945388        -0.136656
 H         2.224323         0.339110         2.423978
 H         0.979727         1.412402         2.630713
