19
Iteration:  3223charge 0 multiplicity 1
 O         0.162731         0.040650         4.523513
 C         0.332807        -0.492185         3.171875
 C         0.175919        -1.908670         2.817832
 C        -0.935447        -1.007831         2.502469
 C        -0.982256        -0.270538         1.177698
 C         0.462762         0.343055         0.935081
 C         0.816791         1.102723        -0.311455
 O         1.254883        -0.295443        -0.075865
 C         1.211202         0.456229         2.279076
 H         1.043554         0.512510         4.636186
 H         0.803901        -2.289904         2.042883
 H        -0.140877        -2.643345         3.566383
 H        -1.811559        -1.088774         3.158998
 H        -1.066253        -0.986425         0.312442
 H        -1.766976         0.465589         1.370407
 H         0.021811         1.412402        -1.021892
 H         1.540738         1.877955        -0.230853
 H         2.213415         0.084464         2.124309
 H         1.000982         1.480810         2.730854
