19
Iteration:  1137charge 0 multiplicity 1
 O         0.183065        -0.134213         4.590773
 C         0.356070        -0.404825         3.193792
 C         0.279073        -1.809802         2.641530
 C        -0.861921        -0.887998         2.405149
 C        -0.994086        -0.001835         1.166337
 C         0.411834         0.338354         0.978463
 C         0.916258         0.859886        -0.360171
 O         1.163065        -0.472501         0.051698
 C         1.060386         0.643320         2.308531
 H         0.762270        -0.833500         4.999303
 H         1.079832        -2.062030         1.867612
 H         0.037216        -2.668029         3.391834
 H        -1.680363        -1.157413         3.042015
 H        -1.291000        -0.611196         0.345169
 H        -1.669378         0.875254         1.275092
 H         0.173959         0.904256        -1.152314
 H         1.834508         1.533131        -0.416347
 H         2.077458         0.700865         2.444614
 H         0.626122         1.601475         2.647523
