19
Iteration:  3493
 O         0.448156        -0.035429         4.571514
 C         0.289542        -0.414224         3.235308
 C         0.062541        -1.830008         3.023958
 C        -1.045026        -0.808054         2.473599
 C        -0.837853        -0.500717         1.018294
 C         0.463796         0.295157         0.889058
 C         0.774024         1.183589        -0.194400
 O         1.266124        -0.218537        -0.163897
 C         1.105796         0.367120         2.211867
 H        -0.342394         0.345304         4.938817
 H         0.739851        -2.230307         2.232850
 H        -0.231011        -2.469573         3.810062
 H        -2.098792        -0.929096         2.941428
 H        -0.768707        -1.453218         0.503798
 H        -1.709340         0.086671         0.501583
 H         0.075130         1.155734        -1.020853
 H         1.439145         1.968556        -0.251437
 H         2.160076         0.045578         2.165156
 H         1.070628         1.457410         2.489597
