19
Iteration:  1351
 O         0.098999         0.071669         4.556227
 C         0.235331        -0.451917         3.219009
 C         0.269047        -1.997168         2.852038
 C        -0.950330        -0.947681         2.529214
 C        -0.985179        -0.185403         1.160341
 C         0.496018         0.260045         0.933728
 C         0.893993         1.129990        -0.219043
 O         1.212156        -0.292651        -0.264182
 C         1.206201         0.347573         2.285363
 H         0.881067         0.579669         4.737674
 H         0.762486        -2.276122         1.991074
 H         0.037216        -2.607980         3.708678
 H        -1.869314        -1.183850         3.156096
 H        -1.351505        -0.762224         0.243025
 H        -1.558234         0.689239         1.421463
 H         0.273654         1.497298        -1.120630
 H         1.820970         1.796467        -0.159638
 H         2.327458         0.025224         2.357617
 H         1.212183         1.333378         2.583189
