19
Iteration:  4295
 O         0.293509         0.032529         4.608204
 C         0.357375        -0.395096         3.279626
 C         0.266964        -1.854399         2.915730
 C        -0.909360        -0.961618         2.513273
 C        -0.879140        -0.526903         1.112262
 C         0.446457         0.238411         0.852042
 C         0.527260         1.124269        -0.234752
 O         1.341086        -0.157851        -0.192264
 C         1.106198         0.556920         2.160976
 H         0.167459        -0.789647         5.096392
 H         0.693470        -2.593057         2.136462
 H         0.153870        -2.433647         3.814132
 H        -1.896651        -1.079239         3.012211
 H        -0.931497        -1.260778         0.410175
 H        -1.774072         0.134375         0.945496
 H        -0.138307         1.043388        -1.053466
 H         0.997421         2.093357         0.013799
 H         2.228459         0.527522         2.135989
 H         0.872749         1.618798         2.365101
