19
Iteration:    37
 O         0.468385        -0.258445         4.621517
 C         0.212091        -0.290874         3.240331
 C         0.081521        -1.761585         2.706662
 C        -0.999313        -0.742670         2.580927
 C        -1.007004        -0.405212         1.115553
 C         0.446126         0.216797         0.888850
 C         1.003792         1.004741        -0.360899
 O         1.334050        -0.357416        -0.013604
 C         0.843227         0.705578         2.277030
 H         1.332932        -0.658088         4.676960
 H         0.622388        -2.171636         1.790246
 H        -0.043598        -2.495335         3.533316
 H        -2.002030        -0.879882         3.035284
 H        -1.206473        -1.269227         0.494302
 H        -1.746538         0.540621         0.827225
 H         0.348936         1.135483        -1.262579
 H         1.949989         1.795214        -0.249454
 H         1.994628         0.736558         2.405928
 H         0.454097         1.817340         2.373597
