19
Iteration:  4764
 O         0.195467        -0.167054         4.633113
 C         0.367090        -0.365897         3.237001
 C         0.614852        -1.726278         2.675891
 C        -0.777401        -1.125944         2.501907
 C        -1.062870        -0.430829         1.287710
 C         0.376593         0.423380         0.881886
 C         0.738224         0.977318        -0.440090
 O         1.274890        -0.296348         0.005304
 C         0.798873         0.755092         2.236530
 H         0.772318         0.613329         4.885345
 H         1.206474        -1.963747         1.811434
 H         0.533443        -2.546062         3.440886
 H        -1.712198        -1.488434         2.926169
 H        -1.052247        -1.060828         0.434232
 H        -2.096433        -0.094601         1.398497
 H        -0.026881         0.781256        -1.243218
 H         1.453154         1.805643        -0.507212
 H         1.926138         0.971386         2.217121
 H         0.312559         1.733810         2.583118
