19
Iteration:  1258charge 0 multiplicity 1
 O         0.341049        -0.142613         4.678218
 C         0.306931        -0.342801         3.282033
 C         0.024066        -1.727564         2.917236
 C        -1.004384        -0.740124         2.441805
 C        -0.959854        -0.410617         1.004963
 C         0.534614         0.198231         0.885259
 C         0.796912         1.091909        -0.261989
 O         1.337427        -0.265032        -0.206946
 C         1.080436         0.462843         2.263938
 H         0.797284        -1.004152         4.882414
 H         0.838853        -2.241407         2.180756
 H        -0.228079        -2.365101         3.811604
 H        -1.951725        -0.954768         3.004014
 H        -1.104796        -1.220256         0.344798
 H        -1.749685         0.352310         0.938477
 H         0.042604         1.218295        -0.992717
 H         1.567641         1.916144        -0.257184
 H         2.117891         0.337355         2.188586
 H         0.979275         1.529961         2.682665
