19
Iteration:  2570charge 0 multiplicity 1
 O         0.269192         0.057851         4.521487
 C         0.261754        -0.537500         3.242070
 C         0.305758        -1.905253         2.692579
 C        -0.882783        -0.949389         2.403565
 C        -0.964891        -0.124918         1.145624
 C         0.410664         0.280290         0.973796
 C         0.933363         1.016436        -0.266876
 O         1.171812        -0.445240         0.018330
 C         0.959661         0.652682         2.275762
 H         1.110489        -0.332807         4.868111
 H         1.095016        -2.190888         1.988238
 H         0.074444        -2.773374         3.446216
 H        -1.810259        -1.349104         2.707654
 H        -1.365935        -0.610688         0.218588
 H        -1.621470         0.842643         1.478330
 H         0.187640         1.318956        -0.957847
 H         1.848047         1.492894        -0.231147
 H         2.081916         0.442784         2.228972
 H         0.561713         1.592435         2.743358
