19
Iteration:  1858
 O         0.116209        -0.074217         4.535297
 C         0.368021        -0.445973         3.239738
 C         0.405167        -1.866480         2.525602
 C        -0.748164        -0.898608         2.408281
 C        -1.067760        -0.003351         1.235772
 C         0.352351         0.373480         0.906619
 C         0.989126         0.900718        -0.243968
 O         1.144511        -0.506050         0.098896
 C         0.981908         0.545366         2.276747
 H         0.865537         0.110671         5.160671
 H         1.110069        -1.900666         1.792115
 H         0.392582        -2.669072         3.209972
 H        -1.606710        -1.317468         2.907440
 H        -1.751894        -0.317384         0.401594
 H        -1.826049         0.866639         1.511746
 H         0.338967         0.992669        -1.128680
 H         1.928643         1.361981        -0.295643
 H         2.036416         0.794895         2.350365
 H         0.471869         1.513049         2.485681
