19
Iteration:   474
 O         0.257043        -0.011429         4.628693
 C         0.264087        -0.378318         3.255643
 C         0.399215        -1.686904         2.622505
 C        -0.860277        -0.969931         2.431766
 C        -1.039629        -0.129542         1.135368
 C         0.430426         0.303540         0.960942
 C         0.913896         0.949427        -0.314562
 O         1.138480        -0.522889        -0.033579
 C         1.002920         0.566786         2.331595
 H         0.300930        -0.855501         5.169965
 H         1.036526        -1.818377         1.789155
 H         0.159590        -2.561204         3.237343
 H        -1.667163        -1.302952         3.108529
 H        -1.349170        -0.593909         0.115459
 H        -1.744342         0.695969         1.343357
 H         0.232841         1.124884        -1.113153
 H         1.884297         1.408672        -0.322660
 H         2.105493         0.329309         2.282032
 H         0.886511         1.684386         2.518207
