19
Iteration:   255charge 0 multiplicity 1
 O         0.219499        -0.074562         4.588305
 C         0.365059        -0.355038         3.198590
 C         0.147382        -1.847620         2.872932
 C        -0.871863        -0.786966         2.495077
 C        -0.950710        -0.368068         1.036168
 C         0.460334         0.299821         0.928901
 C         0.857959         1.004015        -0.283617
 O         1.191041        -0.358803        -0.148428
 C         1.069061         0.567516         2.360152
 H         0.839677        -0.657589         5.089759
 H         0.593439        -2.346045         1.940604
 H        -0.061066        -2.564296         3.701488
 H        -1.751947        -0.675243         3.097273
 H        -1.017360        -1.182417         0.271532
 H        -1.604929         0.476675         0.922163
 H         0.300358         1.393700        -1.161093
 H         1.891535         1.562887        -0.293571
 H         2.142437         0.700623         2.185174
 H         0.673202         1.485423         2.635194
