19
Iteration:  4370charge 0 multiplicity 1
 O         0.214778        -0.113371         4.542936
 C         0.431004        -0.406023         3.179752
 C         0.447579        -1.768867         2.825702
 C        -0.862140        -1.028612         2.477963
 C        -1.045055        -0.315752         1.162917
 C         0.337689         0.287897         0.847351
 C         0.732852         1.054935        -0.294849
 O         1.230685        -0.329530        -0.019863
 C         1.012340         0.598335         2.281944
 H         0.827397         0.661831         4.527167
 H         1.073530        -2.191588         1.974925
 H         0.299751        -2.394405         3.671839
 H        -1.619401        -1.340201         3.218007
 H        -1.294091        -0.929099         0.330371
 H        -1.799740         0.517165         1.035619
 H         0.020206         1.144827        -1.030221
 H         1.566288         1.681417        -0.175112
 H         2.151188         0.722476         2.342615
 H         0.499362         1.565900         2.691113
