19
Iteration:  3136
 O         0.374588         0.106881         4.564616
 C         0.374375        -0.475347         3.225595
 C         0.021094        -1.919464         2.871419
 C        -1.039015        -0.833946         2.560550
 C        -0.898774        -0.482227         1.061549
 C         0.466692         0.237833         0.916151
 C         0.805146         1.160763        -0.270903
 O         1.299169        -0.132446        -0.167018
 C         1.115717         0.382497         2.259322
 H        -0.033412        -0.539361         5.202081
 H         0.653661        -2.436380         2.163346
 H        -0.273357        -2.592896         3.626391
 H        -1.884515        -0.972687         3.147301
 H        -0.856629        -1.342055         0.284719
 H        -1.716945         0.242599         0.699992
 H        -0.054974         1.186700        -0.896665
 H         1.479136         1.926941        -0.178624
 H         2.174332         0.103157         2.096162
 H         1.104265         1.429937         2.730477
