19
Iteration:  1914charge 0 multiplicity 1
 O         0.306805        -0.142751         4.657630
 C         0.311057        -0.391733         3.300247
 C         0.167322        -1.831977         2.783159
 C        -0.982258        -0.795447         2.500833
 C        -0.925364        -0.273014         1.003094
 C         0.473533         0.315043         0.881251
 C         0.770667         1.029018        -0.361643
 O         1.316026        -0.347376        -0.052883
 C         1.025812         0.574178         2.300910
 H         0.897886        -0.741141         5.097884
 H         0.741658        -2.226599         1.975407
 H        -0.176055        -2.649813         3.392063
 H        -1.942901        -0.939476         2.915635
 H        -0.962803        -1.092416         0.259921
 H        -1.629946         0.637433         1.038799
 H         0.117995         0.943008        -1.193667
 H         1.606280         1.697527        -0.250039
 H         2.092467         0.486512         2.400064
 H         0.708578         1.640205         2.522823
