19
Iteration:  2978
 O         0.415830        -0.235898         4.591514
 C         0.258818        -0.320167         3.156821
 C         0.163406        -1.770344         2.556507
 C        -0.987899        -0.874294         2.482964
 C        -0.988715        -0.208716         1.110773
 C         0.394586         0.378480         0.957044
 C         0.881128         0.872568        -0.301621
 O         1.346951        -0.489747         0.136457
 C         0.923828         0.761395         2.341062
 H         1.396069        -0.411935         4.728790
 H         0.776708        -1.975441         1.685422
 H         0.124759        -2.478270         3.398086
 H        -1.873806        -1.086853         3.000540
 H        -1.324352        -0.968480         0.404069
 H        -1.760425         0.546031         0.825746
 H         0.086853         0.880295        -1.078654
 H         1.547310         1.755678        -0.238178
 H         2.026848         0.908754         2.270075
 H         0.562718         1.787545         2.449901
