19
Iteration:  4824charge 0 multiplicity 1
 O         0.447257        -0.026048         4.626595
 C         0.309025        -0.391980         3.219031
 C         0.566171        -1.847692         2.744352
 C        -0.838913        -1.116460         2.520356
 C        -0.949410        -0.527503         1.066166
 C         0.284862         0.348234         0.954039
 C         0.709714         1.010293        -0.427425
 O         1.269283        -0.201416         0.010989
 C         0.728898         0.780651         2.311527
 H        -0.433630         0.206729         5.023126
 H         1.103854        -1.958218         1.763638
 H         0.754619        -2.639591         3.429452
 H        -1.807319        -1.571398         2.860729
 H        -1.065965        -1.407539         0.328954
 H        -1.862870         0.087612         1.159365
 H         0.069259         0.903793        -1.280749
 H         1.391250         1.939545        -0.419756
 H         1.799477         0.702191         2.374515
 H         0.379503         1.737976         2.634400
