19
Iteration:  1028
 O         0.140968        -0.026192         4.604240
 C         0.384831        -0.504878         3.201583
 C         0.158852        -1.907975         2.747567
 C        -0.895985        -0.790776         2.512070
 C        -1.022317        -0.218215         1.174097
 C         0.409303         0.352571         0.886950
 C         0.895525         0.993215        -0.322616
 O         1.267102        -0.329457        -0.031045
 C         1.145022         0.479452         2.219312
 H         0.963777        -0.344404         5.062008
 H         0.829618        -2.154855         1.905473
 H         0.012266        -2.744760         3.508373
 H        -1.772398        -0.824470         3.122793
 H        -1.228474        -0.784208         0.308569
 H        -1.777894         0.584389         1.302507
 H         0.189337         1.049801        -1.192418
 H         1.730763         1.730528        -0.243876
 H         2.143548         0.244896         2.245266
 H         0.977718         1.517122         2.508619
