19
Iteration:  1967charge 0 multiplicity 1
 O         0.382641         0.057832         4.523239
 C         0.297875        -0.434497         3.184389
 C         0.024517        -1.953237         2.979061
 C        -1.021264        -0.897917         2.454605
 C        -0.968293        -0.399786         1.022411
 C         0.466524         0.270685         0.869480
 C         0.875026         1.159579        -0.178904
 O         1.324680        -0.174878        -0.100949
 C         1.055702         0.390324         2.198739
 H         0.764984        -0.671458         4.985236
 H         0.759294        -2.521118         2.518142
 H        -0.339384        -2.384426         3.894607
 H        -1.900170        -0.687117         3.001682
 H        -1.066724        -1.257934         0.342488
 H        -1.777865         0.317953         0.984622
 H         0.178686         1.458353        -1.057980
 H         1.579869         1.999877         0.034586
 H         2.174040         0.012957         2.237699
 H         1.058188         1.415922         2.661106
