19
Iteration:   545
 O         0.348738        -0.207927         4.662537
 C         0.276358        -0.339926         3.244377
 C         0.225125        -1.780910         2.706140
 C        -0.991981        -0.859948         2.538895
 C        -1.029807        -0.224869         1.096979
 C         0.427645         0.267794         0.918881
 C         0.895212         0.996737        -0.357767
 O         1.334849        -0.422869        -0.058750
 C         0.981420         0.613540         2.292953
 H         0.979818         0.502979         4.981273
 H         0.603074        -1.969123         1.696542
 H         0.066514        -2.707381         3.348699
 H        -1.998176        -0.771142         2.971528
 H        -1.287152        -1.082761         0.487670
 H        -1.735404         0.638096         0.817254
 H         0.074257         0.938129        -1.066551
 H         1.707724         1.756815        -0.308358
 H         2.029457         0.502771         2.450645
 H         0.725440         1.627461         2.406905
