19
Iteration:  2542
 O         0.129579        -0.236592         4.605054
 C         0.351802        -0.369081         3.238798
 C         0.412544        -1.766599         2.662813
 C        -0.868688        -0.920169         2.470532
 C        -1.090443        -0.110603         1.174681
 C         0.342386         0.390976         0.942497
 C         1.053712         0.884946        -0.419565
 O         1.123556        -0.480783         0.012721
 C         1.011649         0.736148         2.286724
 H         0.983389        -0.457028         4.975632
 H         1.000476        -2.006422         1.794612
 H         0.348577        -2.417605         3.477648
 H        -1.695925        -1.038702         3.200335
 H        -1.271513        -0.699294         0.291719
 H        -1.841853         0.578715         1.290422
 H         0.434053         1.068611        -1.386934
 H         1.973457         1.485051        -0.115815
 H         2.063754         0.521373         2.261659
 H         0.891976         1.711578         2.774968
