19
Iteration:  2164
 O         0.243655        -0.141576         4.584144
 C         0.318456        -0.439585         3.138500
 C         0.323422        -1.871867         2.608156
 C        -0.869558        -0.862508         2.363919
 C        -1.010415        -0.043699         1.165719
 C         0.377474         0.409893         0.958251
 C         0.839480         0.897600        -0.299748
 O         1.268266        -0.493618         0.139638
 C         0.967100         0.627774         2.297952
 H         1.125128         0.107431         4.962958
 H         1.108857        -2.182882         1.905814
 H         0.133442        -2.533076         3.473370
 H        -1.781141        -1.214625         2.911267
 H        -1.612457        -0.471970         0.369524
 H        -1.643011         0.811839         1.282201
 H         0.089443         0.800107        -1.149222
 H         1.825041         1.513749        -0.513218
 H         2.078573         0.710023         2.297743
 H         0.636336         1.426568         2.815519
