19
Iteration:  4006
 O         0.355852        -0.143315         4.744215
 C         0.306127        -0.390224         3.226737
 C         0.350061        -1.858030         2.774626
 C        -0.869803        -1.035597         2.478279
 C        -0.936349        -0.367013         1.120583
 C         0.390664         0.446147         0.867815
 C         0.704977         1.014229        -0.355981
 O         1.230516        -0.329565        -0.058609
 C         0.992917         0.689180         2.240819
 H         0.273797         0.797680         4.748376
 H         0.922739        -2.118524         1.953942
 H         0.120963        -2.675171         3.469400
 H        -1.885381        -1.288765         2.841957
 H        -0.965135        -1.275242         0.371122
 H        -1.811000         0.379426         0.953653
 H        -0.014408         1.051104        -1.146336
 H         1.641937         1.646310        -0.357053
 H         2.079865         0.814062         2.215716
 H         0.502888         1.668431         2.479699
