19
Iteration:  1976
 O         0.342246         0.065875         4.561460
 C         0.313507        -0.477514         3.252008
 C         0.053311        -1.897621         2.984063
 C        -0.962050        -0.890428         2.447196
 C        -0.950483        -0.405050         0.988663
 C         0.412059         0.284077         0.921835
 C         0.880403         1.182758        -0.190743
 O         1.291709        -0.184427        -0.189647
 C         1.085287         0.357901         2.261958
 H         0.741070        -0.538967         5.174154
 H         0.673721        -2.577092         2.460408
 H        -0.504040        -2.347369         3.808372
 H        -1.905523        -0.844308         2.939670
 H        -1.095345        -1.103082         0.176076
 H        -1.734592         0.199610         0.747299
 H         0.068431         1.485845        -1.032233
 H         1.766596         1.844906        -0.079159
 H         2.204750        -0.031287         2.116196
 H         1.165578         1.392615         2.481599
