19
Iteration:  1719
 O         0.270369         0.080014         4.546991
 C         0.245656        -0.440294         3.226918
 C         0.166860        -1.872456         2.951394
 C        -0.958533        -0.918198         2.511575
 C        -0.904873        -0.377646         1.079790
 C         0.415937         0.307653         0.866007
 C         0.976943         1.191474        -0.228734
 O         1.183498        -0.227194        -0.219584
 C         1.132908         0.308752         2.272633
 H         0.173274        -0.670502         5.146407
 H         0.576165        -2.372651         2.072762
 H        -0.067939        -2.550441         3.790324
 H        -1.977893        -1.027274         2.984179
 H        -1.194870        -1.140935         0.349469
 H        -1.597367         0.350858         0.925534
 H         0.327490         1.644448        -1.005613
 H         1.816412         1.845424         0.098049
 H         2.095281        -0.040893         2.216818
 H         1.194724         1.359096         2.745308
