19
Iteration:   208charge 0 multiplicity 1
 O         0.421041        -0.072914         4.575553
 C         0.252055        -0.406210         3.210631
 C         0.094648        -1.784750         2.799399
 C        -1.044682        -0.786636         2.528317
 C        -1.015927        -0.303419         1.063636
 C         0.435588         0.228709         0.881392
 C         0.870761         0.917349        -0.347388
 O         1.420644        -0.256894        -0.020162
 C         0.996605         0.554168         2.316942
 H         0.951039        -0.764616         5.038145
 H         0.703556        -2.191023         1.960713
 H        -0.154334        -2.590693         3.595563
 H        -2.009595        -0.987093         3.033148
 H        -1.389228        -1.113016         0.285067
 H        -1.618791         0.656929         1.044678
 H         0.161206         0.850916        -1.168986
 H         1.374173         1.939862        -0.275192
 H         2.056105         0.283254         2.330124
 H         0.904592         1.590854         2.561969
