19
Iteration:  1084
 O         0.465607        -0.211585         4.680052
 C         0.306666        -0.447940         3.231587
 C         0.123723        -1.780543         2.673539
 C        -1.042207        -0.744091         2.477990
 C        -1.031286        -0.201437         1.038491
 C         0.367431         0.312444         0.870740
 C         0.949440         0.971421        -0.378776
 O         1.344697        -0.451479         0.099415
 C         0.878060         0.683732         2.315017
 H         1.471814        -0.246040         4.687865
 H         0.607001        -2.159260         1.698113
 H        -0.078515        -2.634155         3.470864
 H        -1.941545        -1.124357         2.904514
 H        -1.304945        -0.869401         0.266654
 H        -1.795181         0.625334         0.952604
 H         0.422912         1.074046        -1.345283
 H         1.943637         1.556681        -0.314975
 H         1.957304         0.631193         2.468971
 H         0.637918         1.650148         2.732284
