19
Iteration:  3819charge 0 multiplicity 1
 O         0.390417        -0.020406         4.591060
 C         0.292072        -0.450779         3.290273
 C         0.233404        -1.914807         2.901301
 C        -0.897344        -0.971818         2.458820
 C        -0.940014        -0.397245         1.064882
 C         0.422575         0.332221         0.903107
 C         0.690694         1.071919        -0.360192
 O         1.238707        -0.225571        -0.081347
 C         1.099102         0.563645         2.279322
 H        -0.321543         0.556999         4.848448
 H         0.994724        -2.329244         2.237535
 H         0.047305        -2.668599         3.548347
 H        -1.854908        -0.971618         2.944130
 H        -0.896428        -1.163662         0.335622
 H        -1.850095         0.183504         1.003826
 H        -0.024014         1.269089        -1.231651
 H         1.474192         1.818048        -0.372901
 H         2.141873         0.329758         2.174172
 H         0.930521         1.537706         2.634809
