19
Iteration:   843charge 0 multiplicity 1
 O         0.180010        -0.052583         4.577746
 C         0.346498        -0.394746         3.216223
 C         0.294399        -1.802516         2.764110
 C        -0.818223        -0.861800         2.449417
 C        -1.000075        -0.196587         1.114497
 C         0.374606         0.298141         0.934875
 C         0.941287         1.037451        -0.272771
 O         1.104421        -0.458275        -0.017266
 C         1.069652         0.564559         2.271211
 H         0.666828        -0.804434         5.009582
 H         0.882517        -1.888109         1.818499
 H         0.106144        -2.715354         3.310942
 H        -1.764714        -1.159072         3.036960
 H        -1.214619        -0.906870         0.360199
 H        -1.673418         0.739551         1.066893
 H         0.396812         1.194970        -1.202154
 H         1.855175         1.540990        -0.133393
 H         2.174922         0.214055         2.088108
 H         1.017384         1.648945         2.675247
