19
Iteration:   608charge 0 multiplicity 1
 O         0.332685        -0.060345         4.520713
 C         0.400224        -0.473830         3.200391
 C         0.057782        -1.938257         2.949345
 C        -0.948070        -0.894792         2.517925
 C        -0.991588        -0.216987         1.173760
 C         0.447932         0.282282         0.862696
 C         0.896322         1.078786        -0.356928
 O         1.292541        -0.251488        -0.104483
 C         1.112415         0.458517         2.238137
 H        -0.528589         0.424282         4.591989
 H         0.501045        -2.615047         2.217600
 H        -0.288169        -2.601016         3.807147
 H        -1.854607        -0.778843         3.142420
 H        -1.227616        -1.039155         0.392575
 H        -1.722192         0.646785         1.168288
 H         0.329248         1.122258        -1.343767
 H         1.514862         1.927363        -0.003905
 H         2.205476         0.336736         2.190625
 H         0.885968         1.438224         2.873510
