19
Iteration:   162
 O         0.171246        -0.055411         4.525337
 C         0.337201        -0.468870         3.215211
 C         0.193947        -1.861908         2.754866
 C        -0.897228        -0.908753         2.523382
 C        -0.978046        -0.163031         1.196817
 C         0.392323         0.372887         0.926053
 C         0.978548         0.976307        -0.351209
 O         1.180490        -0.415950        -0.108837
 C         1.093346         0.562315         2.334707
 H         1.041340         0.144661         4.860416
 H         0.955807        -2.249608         2.088978
 H         0.003230        -2.455007         3.606728
 H        -1.851232        -1.031579         3.083553
 H        -1.213806        -0.976475         0.400211
 H        -1.800299         0.651601         1.301509
 H         0.343801         1.218101        -1.323827
 H         1.910997         1.483513        -0.258904
 H         2.175334         0.469340         2.332875
 H         0.862759         1.598451         2.767892
