19
Iteration:   982charge 0 multiplicity 1
 O         0.147573         0.087157         4.537904
 C         0.266840        -0.447628         3.330926
 C         0.233920        -1.873030         2.901685
 C        -0.927527        -0.983964         2.426865
 C        -0.879230        -0.176503         1.141068
 C         0.565696         0.272540         0.887273
 C         0.851556         1.131829        -0.215660
 O         1.111353        -0.367497        -0.264255
 C         1.189622         0.383392         2.295044
 H         0.413491        -0.637737         5.081162
 H         0.940590        -2.361279         2.236995
 H        -0.042035        -2.543991         3.638015
 H        -1.962412        -1.247755         2.888619
 H        -1.230411        -0.687482         0.196735
 H        -1.335743         0.805373         1.199818
 H        -0.064790         1.511379        -0.844427
 H         1.791151         1.746847        -0.219814
 H         2.201096         0.222209         2.320687
 H         1.035950         1.424037         2.634705
