19
Iteration:  1928charge 0 multiplicity 1
 O         0.376637        -0.034507         4.647170
 C         0.269283        -0.439547         3.202419
 C         0.012864        -1.886563         2.783759
 C        -0.946799        -0.810365         2.488111
 C        -0.977242        -0.316916         1.095076
 C         0.443956         0.224822         0.886643
 C         0.827050         1.047556        -0.318256
 O         1.429189        -0.264579        -0.086084
 C         1.033968         0.533204         2.309104
 H         0.856281        -0.818122         5.043952
 H         0.698663        -2.148970         1.863384
 H        -0.100706        -2.623953         3.613832
 H        -1.873550        -0.868411         3.143715
 H        -1.308794        -1.122640         0.404212
 H        -1.789894         0.347117         0.662123
 H         0.084402         1.086891        -1.100344
 H         1.383180         2.008959        -0.218520
 H         2.067098         0.618075         2.265787
 H         0.649070         1.507382         2.709018
