19
Iteration:  3545charge 0 multiplicity 1
 O         0.205349         0.132657         4.562464
 C         0.336352        -0.491022         3.238016
 C         0.047933        -2.035298         2.997302
 C        -0.911828        -0.863022         2.557754
 C        -0.857840        -0.423242         1.041021
 C         0.512810         0.256630         0.850103
 C         0.642353         1.164489        -0.240914
 O         1.358983        -0.129313        -0.218898
 C         1.122837         0.298315         2.234226
 H         1.079775         0.436685         4.798328
 H         0.537668        -2.634510         2.162805
 H        -0.179733        -2.440305         3.944593
 H        -1.772208        -0.657961         3.258114
 H        -1.016729        -1.259889         0.389882
 H        -1.652455         0.332047         0.854064
 H        -0.043304         1.444214        -1.027509
 H         1.391999         1.948970        -0.008541
 H         2.180472        -0.058107         2.285492
 H         1.238423         1.381336         2.434245
