19
Iteration:   104
 O         0.134100        -0.024718         4.558780
 C         0.312305        -0.408253         3.223455
 C         0.325397        -1.838476         2.661684
 C        -0.916907        -0.901830         2.512555
 C        -0.975142        -0.107257         1.191864
 C         0.474691         0.347626         0.962386
 C         0.911410         0.870132        -0.288064
 O         1.180687        -0.461534        -0.130831
 C         1.084690         0.592822         2.343921
 H         0.554198        -0.726093         5.131526
 H         0.921546        -1.934943         1.763964
 H         0.321530        -2.665503         3.424879
 H        -1.770268        -0.991695         3.158345
 H        -1.458647        -0.573898         0.334103
 H        -1.697574         0.812197         1.383486
 H         0.058030         1.084895        -1.017234
 H         1.814948         1.571105        -0.571632
 H         2.169877         0.252510         2.284926
 H         0.952621         1.714845         2.690283
