19
Iteration:  1478charge 0 multiplicity 1
 O         0.407236        -0.206069         4.576742
 C         0.295611        -0.335860         3.191491
 C         0.286375        -1.749420         2.730480
 C        -0.992207        -0.900448         2.484260
 C        -1.051182        -0.233013         1.086575
 C         0.326370         0.394070         0.906401
 C         1.064499         0.966202        -0.340601
 O         1.174547        -0.452454         0.081998
 C         0.999718         0.682143         2.299887
 H        -0.156264        -0.944708         4.930596
 H         0.830160        -2.056070         1.843813
 H         0.051313        -2.595157         3.454338
 H        -1.847630        -0.920675         3.194784
 H        -1.306903        -0.859674         0.229639
 H        -1.825585         0.597180         0.924153
 H         0.536982         1.085719        -1.280395
 H         1.956226         1.438621        -0.231666
 H         2.036168         0.506356         2.310892
 H         0.776696         1.821972         2.513857
