19
Iteration:  3142charge 0 multiplicity 1
 O         0.407622         0.093541         4.561471
 C         0.276938        -0.504119         3.285052
 C         0.016864        -1.855699         2.864529
 C        -1.002317        -0.821275         2.550513
 C        -0.899601        -0.490229         1.042336
 C         0.493268         0.247175         0.928938
 C         0.783279         1.162114        -0.240723
 O         1.298886        -0.163979        -0.234965
 C         1.133274         0.381923         2.332488
 H         0.053741        -0.586427         5.177212
 H         0.722909        -2.204438         2.030883
 H        -0.303264        -2.578805         3.671004
 H        -2.047487        -1.066056         2.985462
 H        -0.878835        -1.321439         0.386241
 H        -1.752421         0.002432         0.638142
 H        -0.084566         1.145015        -0.965151
 H         1.579634         2.048004        -0.265546
 H         2.204302         0.274821         2.083986
 H         1.096393         1.411927         2.599723
