19
Iteration:  2712
 O         0.221118         0.210194         4.432442
 C         0.302599        -0.449166         3.220240
 C         0.140011        -1.934899         3.053921
 C        -0.940136        -0.945546         2.539343
 C        -0.899715        -0.430795         1.077307
 C         0.445381         0.210273         0.869281
 C         0.867510         1.275954        -0.088813
 O         1.220824        -0.100252        -0.233891
 C         1.202906         0.155424         2.195681
 H        -0.427225        -0.132915         5.103761
 H         0.922403        -2.422635         2.384130
 H        -0.235950        -2.649635         3.791189
 H        -1.779896        -0.988657         3.136304
 H        -1.116429        -1.161194         0.305489
 H        -1.699548         0.329464         1.074378
 H         0.130126         1.627127        -0.826585
 H         1.718399         1.901462        -0.085412
 H         1.964071        -0.548817         1.863270
 H         1.538381         1.151325         2.389317
