19
Iteration:  2381charge 0 multiplicity 1
 O         0.069137         0.029638         4.507941
 C         0.302182        -0.469911         3.233508
 C         0.165709        -1.959472         2.977455
 C        -0.865155        -0.936015         2.483113
 C        -0.931372        -0.206075         1.168820
 C         0.521691         0.332538         0.885154
 C         0.708487         1.152434        -0.364699
 O         1.294731        -0.223626        -0.135374
 C         1.253528         0.286138         2.266056
 H         0.898404        -0.158404         4.941281
 H         0.637414        -2.474278         2.217901
 H        -0.182047        -2.495865         3.858917
 H        -1.745257        -0.746058         2.989795
 H        -1.212324        -0.628352         0.206398
 H        -1.547313         0.726225         1.399804
 H        -0.096768         1.134345        -1.022409
 H         1.518615         1.816083        -0.446499
 H         2.120560        -0.353827         2.078688
 H         1.427267         1.316058         2.742110
