19
Iteration:  3816charge 0 multiplicity 1
 O         0.386799        -0.035006         4.593933
 C         0.283456        -0.467704         3.291461
 C         0.260730        -1.879056         2.876234
 C        -0.913930        -0.972816         2.485078
 C        -0.947629        -0.389639         1.091787
 C         0.418833         0.334642         0.895895
 C         0.708506         1.061868        -0.366614
 O         1.251877        -0.224568        -0.092516
 C         1.103045         0.586755         2.271425
 H        -0.465360         0.453703         4.832985
 H         0.973431        -2.381473         2.263609
 H        -0.029958        -2.675512         3.559737
 H        -1.882481        -1.029080         2.941081
 H        -0.965501        -1.309446         0.393629
 H        -1.859425         0.264526         1.063986
 H         0.000951         1.230448        -1.147494
 H         1.494028         1.800410        -0.408435
 H         2.151330         0.287410         2.114175
 H         0.923798         1.649305         2.548359
