19
Iteration:  1115charge 0 multiplicity 1
 O         0.276306        -0.144961         4.432368
 C         0.369790        -0.406571         3.062385
 C         0.218192        -1.854911         2.657027
 C        -0.955449        -0.846596         2.501328
 C        -1.057532        -0.131981         1.184155
 C         0.373645         0.395301         1.006647
 C         0.904615         0.917692        -0.334778
 O         1.325495        -0.484173         0.190737
 C         0.998136         0.690955         2.274425
 H         0.845103        -0.716756         4.956922
 H         0.554877        -2.214929         1.636693
 H         0.158296        -2.698647         3.486126
 H        -1.764403        -0.903590         3.170682
 H        -1.424972        -0.564589         0.289706
 H        -1.686241         0.759550         1.483657
 H         0.298307         0.972076        -1.242101
 H         1.861259         1.514700        -0.277342
 H         2.004818         0.520426         2.251284
 H         0.813300         1.651239         2.787045
