19
Iteration:  4520
 O         0.389659        -0.172846         4.545638
 C         0.273661        -0.344136         3.189463
 C         0.435152        -1.827031         2.821346
 C        -0.897282        -0.998184         2.507317
 C        -0.964979        -0.377692         1.103712
 C         0.436474         0.310889         0.921396
 C         0.672487         1.040918        -0.293142
 O         1.260495        -0.312982        -0.063981
 C         0.950504         0.705560         2.303910
 H        -0.209273         0.522012         4.909570
 H         1.032295        -2.201178         2.028941
 H         0.194629        -2.267715         3.752350
 H        -1.843859        -1.290776         2.970593
 H        -1.148289        -1.324295         0.486211
 H        -1.776778         0.295011         1.005185
 H        -0.096958         0.963871        -1.118118
 H         1.333954         1.947179        -0.408099
 H         2.017733         0.675841         2.236243
 H         0.738500         1.746278         2.508328
