19
Iteration:  4858charge 0 multiplicity 1
 O         0.283482        -0.113180         4.535300
 C         0.365072        -0.361616         3.153921
 C         0.577467        -1.813822         2.875617
 C        -0.770183        -1.027653         2.483538
 C        -0.950436        -0.568306         1.134132
 C         0.294260         0.231104         0.844155
 C         0.632241         1.040896        -0.243595
 O         1.277562        -0.167894        -0.030854
 C         0.785386         0.757490         2.262701
 H         0.800915         0.661750         4.797185
 H         1.181159        -2.193757         2.074079
 H         0.496692        -2.476329         3.739540
 H        -1.614617        -1.573023         2.937096
 H        -1.280056        -1.424852         0.370527
 H        -1.791667         0.157445         1.026762
 H         0.016136         1.151793        -1.142616
 H         1.236442         2.004479        -0.022338
 H         1.858845         0.760363         2.311844
 H         0.421443         1.753841         2.436138
