19
Iteration:  1107
 O         0.330757        -0.138940         4.467248
 C         0.334141        -0.413856         3.102195
 C         0.127665        -1.834105         2.654581
 C        -0.945163        -0.893196         2.508180
 C        -1.059944        -0.110575         1.193307
 C         0.316790         0.380541         0.927542
 C         0.959866         0.861167        -0.299372
 O         1.345895        -0.391332         0.186379
 C         0.987001         0.659367         2.263542
 H         1.091242        -0.706185         4.670719
 H         0.623369        -2.111165         1.640771
 H         0.068555        -2.683544         3.409971
 H        -1.700588        -0.918825         3.319861
 H        -1.350953        -0.742431         0.358795
 H        -1.858391         0.677368         1.187444
 H         0.358863         0.842025        -1.224032
 H         1.902121         1.537979        -0.368736
 H         2.123516         0.602667         2.346462
 H         0.775955         1.617251         2.731410
