19
Iteration:  3702
 O         0.353293        -0.129665         4.545892
 C         0.369053        -0.314238         3.143237
 C         0.345720        -1.780091         2.623585
 C        -0.920550        -0.958281         2.571481
 C        -1.067826        -0.235816         1.078278
 C         0.334665         0.294946         0.945574
 C         0.869977         0.862826        -0.276460
 O         1.331921        -0.451354         0.085569
 C         0.831456         0.810530         2.308275
 H         0.917136        -0.823460         4.991351
 H         0.905076        -1.964621         1.663293
 H         0.391598        -2.653062         3.232630
 H        -1.713134        -1.312589         3.202725
 H        -1.560785        -0.725835         0.240484
 H        -1.695220         0.681570         1.288431
 H         0.374468         1.057692        -1.189924
 H         1.686949         1.523688        -0.246222
 H         1.892660         1.061762         2.144720
 H         0.196892         1.711699         2.572792
