19
Iteration:    78charge 0 multiplicity 1
 O         0.342859         0.007901         4.488944
 C         0.355383        -0.490539         3.170653
 C         0.138581        -1.943241         2.728599
 C        -0.878903        -0.858047         2.407799
 C        -1.009918        -0.153209         1.114583
 C         0.417918         0.381147         0.916608
 C         0.841253         0.936202        -0.310196
 O         1.279710        -0.374480         0.170329
 C         1.038458         0.604044         2.295624
 H         0.862050        -0.654954         5.035409
 H         0.719779        -2.416874         1.881992
 H        -0.382979        -2.528880         3.467151
 H        -1.833885        -1.035959         2.973388
 H        -1.426438        -0.723342         0.316214
 H        -1.738253         0.537120         1.229627
 H         0.285735         0.671961        -1.135533
 H         1.443908         1.760743        -0.524008
 H         2.128660         0.491501         2.292619
 H         0.659933         1.476804         2.759649
