19
Iteration:  3785charge 0 multiplicity 1
 O         0.287637        -0.134812         4.600860
 C         0.315193        -0.396347         3.250924
 C         0.435464        -1.780342         2.769839
 C        -0.895311        -0.923971         2.550409
 C        -1.010527        -0.265590         1.146836
 C         0.386136         0.201330         0.875323
 C         0.751658         0.989740        -0.317242
 O         1.302167        -0.346597        -0.120424
 C         1.007245         0.647817         2.281658
 H        -0.577075        -0.409033         4.853339
 H         0.871509        -1.778927         1.803952
 H         0.515614        -2.509707         3.494477
 H        -1.724182        -0.669942         3.164537
 H        -1.582244        -0.931636         0.500796
 H        -1.681972         0.590163         1.252659
 H         0.057448         1.088453        -1.230908
 H         1.523648         1.704878        -0.077249
 H         2.081174         0.701525         2.279542
 H         0.716937         1.659383         2.304823
