19
Iteration:  2097
 O         0.319215        -0.086234         4.616174
 C         0.355329        -0.405605         3.215601
 C         0.123353        -1.777174         2.816113
 C        -0.973039        -0.809691         2.467366
 C        -0.956662        -0.368301         1.064266
 C         0.396477         0.226977         0.867583
 C         0.854010         1.163390        -0.195397
 O         1.309166        -0.363331        -0.112767
 C         1.034084         0.515056         2.267719
 H         0.888281        -0.818562         4.918709
 H         0.838700        -2.293765         2.216242
 H        -0.036689        -2.370535         3.679331
 H        -1.983302        -0.753971         2.972673
 H        -1.193456        -1.199839         0.322499
 H        -1.761860         0.362359         0.812138
 H         0.203504         1.321096        -1.145164
 H         1.706097         1.767577         0.215589
 H         2.159923         0.650081         2.084724
 H         0.629854         1.417128         2.553978
