19
Iteration:  2767
 O         0.229153         0.001224         4.588334
 C         0.344504        -0.435682         3.179574
 C         0.009920        -1.862337         3.090871
 C        -0.949764        -0.833187         2.514899
 C        -0.801895        -0.483860         1.037603
 C         0.487639         0.145055         0.872074
 C         0.727741         1.271098        -0.158007
 O         1.259121        -0.108031        -0.346874
 C         1.304019         0.241440         2.254982
 H        -0.554829         0.587189         4.746226
 H         0.547830        -2.559481         2.371746
 H        -0.142751        -2.335912         4.054895
 H        -1.938122        -0.606698         2.964015
 H        -0.984410        -1.297892         0.359558
 H        -1.679386         0.147816         0.848018
 H        -0.152169         1.437434        -0.839368
 H         1.374944         2.131684         0.147279
 H         2.323516        -0.181076         2.156140
 H         1.441263         1.301150         2.539498
