19
Iteration:  2672
 O         0.353133         0.172113         4.508821
 C         0.272424        -0.466280         3.246625
 C         0.013260        -1.960195         3.006648
 C        -0.989053        -0.936646         2.487489
 C        -0.900061        -0.450932         1.082139
 C         0.527929         0.197284         0.901792
 C         0.822938         1.211480        -0.206360
 O         1.304088        -0.116281        -0.222935
 C         1.112889         0.317519         2.195442
 H         0.467634        -0.489562         5.188466
 H         0.706372        -2.434341         2.314541
 H        -0.253882        -2.625406         3.779964
 H        -2.092658        -0.858661         2.882607
 H        -1.241345        -1.220396         0.346653
 H        -1.607554         0.475318         0.922799
 H        -0.067193         1.420064        -0.820201
 H         1.511359         2.074400        -0.007070
 H         2.157209        -0.103852         2.292978
 H         1.094278         1.357649         2.674151
