19
Iteration:   253
 O         0.229521        -0.094059         4.594326
 C         0.361544        -0.348763         3.212912
 C         0.145196        -1.837424         2.878183
 C        -0.871491        -0.774022         2.497071
 C        -0.933079        -0.379199         1.035089
 C         0.448792         0.300772         0.941162
 C         0.868958         0.994409        -0.304390
 O         1.179663        -0.346839        -0.152017
 C         1.070130         0.590602         2.347362
 H         0.812139        -0.717893         5.116422
 H         0.555838        -2.419111         1.978145
 H        -0.117465        -2.616955         3.697225
 H        -1.773533        -0.693881         3.048491
 H        -1.011454        -1.239732         0.209332
 H        -1.614722         0.484854         0.842900
 H         0.277137         1.341547        -1.114370
 H         1.937959         1.509750        -0.249286
 H         2.144984         0.760463         2.187501
 H         0.663133         1.514414         2.643271
