19
Iteration:  1581
 O         0.302237        -0.116060         4.660679
 C         0.188851        -0.393272         3.195662
 C         0.182079        -1.821285         2.823550
 C        -1.024312        -0.855952         2.529386
 C        -0.954076        -0.278891         1.109970
 C         0.535601         0.308166         0.883912
 C         0.893630         1.057040        -0.297826
 O         1.265243        -0.339237        -0.140732
 C         1.019442         0.528403         2.279054
 H         1.209810        -0.383842         4.778839
 H         0.638375        -2.269333         1.944071
 H        -0.057141        -2.586607         3.539660
 H        -1.885873        -1.120169         3.084035
 H        -0.988029        -0.978171         0.281982
 H        -1.677299         0.499267         0.883889
 H         0.224968         1.358972        -1.079670
 H         1.691213         1.879409        -0.198633
 H         2.209927         0.244372         2.264132
 H         0.960507         1.533950         2.626099
