19
Iteration:   897
 O         0.416312        -0.033964         4.643521
 C         0.290057        -0.492809         3.263218
 C        -0.046369        -1.913425         2.807480
 C        -1.010963        -0.830267         2.456130
 C        -0.919879        -0.267344         1.109593
 C         0.501324         0.230238         0.906813
 C         0.729067         1.047282        -0.360431
 O         1.419036        -0.233115        -0.047152
 C         1.032160         0.457003         2.301077
 H         1.423642         0.072439         4.644602
 H         0.482236        -2.436370         1.966045
 H        -0.331178        -2.397597         3.696828
 H        -2.052058        -0.667171         2.915752
 H        -1.035237        -1.073993         0.464948
 H        -1.526245         0.538413         0.647951
 H        -0.022329         1.126549        -1.147877
 H         1.413081         1.800459        -0.535970
 H         2.148246         0.413025         2.207396
 H         0.741828         1.550486         2.526222
