19
Iteration:  4325charge 0 multiplicity 1
 O         0.342066         0.018093         4.578745
 C         0.302399        -0.422547         3.254581
 C         0.311280        -1.859973         2.881402
 C        -0.971290        -0.982162         2.522394
 C        -0.958279        -0.537549         1.095223
 C         0.435705         0.296210         0.886827
 C         0.712471         1.133903        -0.325425
 O         1.271033        -0.166663        -0.148188
 C         1.011630         0.543047         2.268769
 H         1.192632        -0.223375         5.003983
 H         0.897263        -2.217068         2.031833
 H         0.213818        -2.378378         3.824690
 H        -1.897583        -1.146619         3.125266
 H        -1.012490        -1.392556         0.364564
 H        -1.909892        -0.010967         0.838464
 H        -0.014511         1.073322        -1.134490
 H         1.370098         1.929534        -0.194328
 H         2.135604         0.547097         2.365100
 H         0.595183         1.576096         2.602548
