19
Iteration:  4902charge 0 multiplicity 1
 O         0.224378         0.100139         4.671541
 C         0.314851        -0.404638         3.280295
 C         0.617694        -1.868026         2.816872
 C        -0.684271        -1.085033         2.523654
 C        -0.897762        -0.552209         1.035774
 C         0.320895         0.283090         0.901502
 C         0.524351         1.054624        -0.422237
 O         1.261605        -0.119446        -0.125714
 C         0.905813         0.620476         2.337280
 H        -0.098018        -0.575280         5.291052
 H         1.345551        -2.172219         2.115914
 H         0.323009        -2.716228         3.466228
 H        -1.611115        -1.374220         3.046316
 H        -1.063100        -1.428472         0.233756
 H        -1.825231         0.047610         1.048979
 H        -0.304006         1.187426        -1.196019
 H         1.150502         2.029015        -0.509450
 H         1.939866         0.575230         2.079520
 H         0.660178         1.593813         2.739883
