19
Iteration:  2149charge 0 multiplicity 1
 O         0.260521        -0.167125         4.579462
 C         0.310728        -0.458155         3.243141
 C         0.285359        -1.845427         2.712910
 C        -0.936050        -0.887795         2.423506
 C        -1.033837        -0.059547         1.070728
 C         0.447348         0.364973         0.940442
 C         0.817144         0.842996        -0.450142
 O         1.291657        -0.355577         0.131385
 C         1.024210         0.647518         2.362627
 H         1.220226        -0.300717         4.813533
 H         0.884265        -2.172636         1.886459
 H         0.017868        -2.723123         3.246007
 H        -1.873127        -1.125149         2.951681
 H        -1.255608        -0.636673         0.156874
 H        -1.559763         0.931711         1.385524
 H        -0.004354         0.729504        -1.159661
 H         1.447189         1.647115        -0.441070
 H         2.136293         0.459550         2.320651
 H         0.678301         1.719018         2.561617
