19
Iteration:  4689charge 0 multiplicity 1
 O         0.253320         0.007539         4.554410
 C         0.321881        -0.427915         3.236596
 C         0.420850        -1.823544         2.817229
 C        -0.806064        -1.050090         2.592152
 C        -0.879083        -0.498727         1.193477
 C         0.291392         0.398424         0.873774
 C         0.640736         1.063249        -0.381112
 O         1.336624        -0.166629        -0.100221
 C         0.897412         0.573989         2.253175
 H         0.951789        -0.561396         4.952697
 H         1.060814        -2.071276         1.939535
 H         0.295296        -2.544998         3.649665
 H        -1.735181        -1.418058         3.018871
 H        -1.025709        -1.327402         0.574420
 H        -1.829715         0.119048         1.061711
 H        -0.009874         0.866330        -1.247824
 H         1.292784         1.853572        -0.441606
 H         1.977884         0.810936         2.306559
 H         0.444720         1.429226         2.620328
