19
Iteration:  1996charge 0 multiplicity 1
 O         0.167696         0.084902         4.631294
 C         0.281653        -0.424851         3.276577
 C         0.085536        -1.936801         2.945258
 C        -0.975806        -0.869171         2.516247
 C        -0.846106        -0.375197         1.065932
 C         0.558242         0.280924         0.886895
 C         0.839891         1.186781        -0.240340
 O         1.170797        -0.211800        -0.352623
 C         1.233231         0.314401         2.288083
 H         0.689735        -0.577261         5.145227
 H         0.903089        -2.240350         2.276032
 H        -0.171757        -2.658572         3.754428
 H        -1.982553        -0.803494         2.910739
 H        -1.004582        -1.216907         0.369616
 H        -1.742600         0.202093         0.824362
 H         0.082255         1.599563        -0.991956
 H         1.609816         1.912027         0.000089
 H         2.229548        -0.141909         2.398964
 H         1.351338         1.276430         2.705479
