19
Iteration:  1613charge 0 multiplicity 1
 O         0.322826        -0.075863         4.629164
 C         0.348955        -0.480850         3.202667
 C         0.029807        -1.872002         2.856583
 C        -1.015576        -0.700994         2.526504
 C        -0.953831        -0.411258         1.037579
 C         0.517994         0.156159         0.890387
 C         0.807121         1.119791        -0.151427
 O         1.369466        -0.245992        -0.226449
 C         1.025593         0.507377         2.250761
 H         1.266880         0.163151         4.767127
 H         0.297194        -2.430907         1.996987
 H        -0.347578        -2.446474         3.681519
 H        -1.814648        -0.746818         3.192624
 H        -0.955619        -1.268842         0.376908
 H        -1.700292         0.405973         0.782680
 H         0.120770         1.274535        -0.921441
 H         1.572622         1.829009         0.231021
 H         2.218458         0.495413         2.260554
 H         0.654496         1.477470         2.552629
