19
Iteration:  4662
 O         0.268401        -0.115194         4.651283
 C         0.380972        -0.360253         3.217119
 C         0.388323        -1.821439         2.883289
 C        -0.824232        -1.049546         2.451685
 C        -0.897550        -0.544222         1.002882
 C         0.358308         0.247406         0.875646
 C         0.508042         1.054621        -0.255045
 O         1.294156        -0.182802        -0.124924
 C         1.016256         0.713256         2.337240
 H         0.922863         0.604648         4.620945
 H         0.864117        -2.272075         2.051712
 H         0.309401        -2.286682         3.869708
 H        -1.811651        -1.042607         2.913597
 H        -1.255311        -1.370158         0.285814
 H        -1.622184         0.238475         1.008981
 H         0.003794         0.862190        -1.220567
 H         1.200146         1.994302        -0.301195
 H         2.110865         0.786348         2.279687
 H         0.623179         1.793565         2.643741
