19
Iteration:  1392
 O         0.215816        -0.096581         4.602483
 C         0.303329        -0.371064         3.174954
 C         0.131054        -1.847264         2.853858
 C        -0.940339        -0.792426         2.521872
 C        -0.953834        -0.320734         1.059118
 C         0.466573         0.315967         0.879313
 C         0.873621         1.085796        -0.271271
 O         1.221396        -0.346073        -0.121003
 C         1.177656         0.488224         2.305954
 H         0.637515        -0.881675         5.070186
 H         0.776708        -2.320509         2.088502
 H         0.057897        -2.502453         3.763213
 H        -1.942088        -0.793384         3.000170
 H        -1.051075        -1.120793         0.380913
 H        -1.688032         0.436607         0.761086
 H         0.089566         1.314140        -1.067598
 H         1.695870         1.754571        -0.130640
 H         2.260478         0.337582         2.328455
 H         0.973456         1.582758         2.539666
