19
Iteration:  3925charge 0 multiplicity 1
 O         0.292739         0.136963         4.503426
 C         0.310846        -0.456691         3.279817
 C         0.250218        -1.948302         2.983197
 C        -0.905811        -1.042297         2.489585
 C        -0.849115        -0.355659         1.092327
 C         0.490606         0.327162         0.940458
 C         0.632456         1.121630        -0.233558
 O         1.196305        -0.164576        -0.270694
 C         1.128126         0.435761         2.276508
 H        -0.142302        -0.553199         5.013657
 H         1.068624        -2.353363         2.269795
 H        -0.022460        -2.578754         3.830210
 H        -1.805331        -1.289919         2.999178
 H        -0.690315        -1.291767         0.389456
 H        -1.779488         0.184942         0.700117
 H        -0.297101         1.182934        -0.825303
 H         1.277446         1.950963        -0.307883
 H         2.224438         0.108639         2.268284
 H         1.162800         1.541001         2.716024
