19
Iteration:   330charge 0 multiplicity 1
 O         0.098713        -0.023773         4.551290
 C         0.327485        -0.372847         3.227267
 C         0.174202        -1.924140         2.884491
 C        -0.834195        -0.911059         2.454477
 C        -0.889251        -0.302450         1.133090
 C         0.486338         0.334871         0.905789
 C         0.883931         1.064917        -0.270614
 O         1.092834        -0.351693        -0.212540
 C         1.174272         0.467923         2.326667
 H         0.855219         0.438804         4.927864
 H         0.896970        -2.454004         2.167153
 H        -0.023002        -2.404958         3.838462
 H        -1.741704        -0.739192         3.006359
 H        -1.102438        -1.044362         0.271809
 H        -1.621544         0.513803         1.259267
 H         0.182771         1.412522        -0.926192
 H         1.740789         1.775739        -0.155489
 H         2.245693         0.147462         2.304958
 H         1.122643         1.493063         2.668437
