19
Iteration:   622
 O         0.276885         0.008422         4.588375
 C         0.308568        -0.507586         3.222059
 C         0.104103        -1.986629         2.901620
 C        -0.895390        -0.829375         2.547160
 C        -0.984378        -0.236042         1.127142
 C         0.437354         0.343440         0.907565
 C         0.832675         1.056439        -0.279007
 O         1.358879        -0.311922        -0.230609
 C         1.149274         0.424491         2.274716
 H        -0.650667         0.197676         4.823527
 H         0.708737        -2.332329         2.048253
 H        -0.121611        -2.544249         3.796037
 H        -1.828569        -0.917250         3.079491
 H        -1.451658        -0.724904         0.281709
 H        -1.752549         0.641411         1.288405
 H         0.010995         1.363055        -0.896636
 H         1.705247         1.763338        -0.432451
 H         2.183519         0.129710         2.143057
 H         1.116534         1.522022         2.451685
