19
Iteration:  2593charge 0 multiplicity 1
 O         0.252563         0.032893         4.567856
 C         0.292647        -0.417531         3.246454
 C         0.182351        -1.896577         2.724867
 C        -0.942313        -0.935031         2.499609
 C        -1.039938        -0.260044         1.133334
 C         0.380098         0.331722         0.961410
 C         0.866785         1.004692        -0.300012
 O         1.360361        -0.306440        -0.093237
 C         1.092234         0.465372         2.277365
 H         1.091891        -0.205836         4.947545
 H         0.772879        -2.201150         1.859497
 H         0.122385        -2.692138         3.543783
 H        -1.826207        -1.020725         2.959526
 H        -1.411651        -0.846121         0.266702
 H        -1.705446         0.732466         1.298893
 H         0.158859         1.123424        -1.150845
 H         1.617893         1.696723        -0.343967
 H         2.224166         0.326909         2.427682
 H         0.671753         1.377446         2.804910
