19
Iteration:  1747
 O         0.423231         0.019819         4.559595
 C         0.274612        -0.464059         3.219202
 C         0.045914        -1.854117         2.928470
 C        -0.971232        -0.953020         2.374519
 C        -0.942784        -0.305012         1.029647
 C         0.372365         0.359510         0.939785
 C         0.822663         1.074438        -0.259302
 O         1.399884        -0.256135        -0.082330
 C         1.049635         0.435257         2.285188
 H         0.544994        -0.736238         5.115010
 H         0.554241        -2.578478         2.243900
 H        -0.433107        -2.478554         3.656743
 H        -1.889797        -0.761926         2.989548
 H        -1.102442        -1.042425         0.185076
 H        -1.791957         0.611700         0.921045
 H         0.024871         1.078577        -1.051950
 H         1.533959         1.884374        -0.133128
 H         2.203335         0.313167         2.208651
 H         0.889103         1.405122         2.740871
