19
Iteration:  4738
 O         0.357382        -0.090629         4.576590
 C         0.355899        -0.383543         3.218223
 C         0.609789        -1.725903         2.747174
 C        -0.761621        -1.095874         2.443405
 C        -0.956745        -0.416200         1.094599
 C         0.312175         0.292046         0.889685
 C         0.682915         0.989086        -0.320777
 O         1.183900        -0.322489         0.000816
 C         0.785888         0.733460         2.334309
 H        -0.447600         0.455968         4.705717
 H         1.338231        -1.852660         1.935254
 H         0.563327        -2.485945         3.487280
 H        -1.691143        -1.303236         2.988196
 H        -1.288904        -1.101117         0.192428
 H        -1.795939         0.268042         1.246098
 H         0.123388         1.020725        -1.246799
 H         1.344519         1.802798         0.156479
 H         1.882987         0.732222         2.414051
 H         0.484120         1.772461         2.728892
