19
Iteration:  3373charge 0 multiplicity 1
 O         0.275735        -0.321254         4.580053
 C         0.404739        -0.329242         3.155496
 C         0.174106        -1.770573         2.695919
 C        -0.899200        -0.810810         2.501566
 C        -1.011946        -0.178088         1.128970
 C         0.390471         0.347272         0.961460
 C         0.944280         0.896101        -0.278439
 O         1.234596        -0.484337         0.053996
 C         0.974994         0.728037         2.207250
 H         1.100510         0.064054         5.007414
 H         0.623022        -2.188741         1.803019
 H         0.216835        -2.415258         3.613286
 H        -1.880647        -0.804902         3.017425
 H        -1.267447        -0.845355         0.320900
 H        -1.750087         0.675643         1.104450
 H         0.271178         1.057764        -1.156840
 H         1.768490         1.590462        -0.124762
 H         2.034439         0.904329         2.105246
 H         0.493972         1.666723         2.428195
