19
Iteration:  3584charge 0 multiplicity 1
 O         0.226250         0.127206         4.567857
 C         0.242494        -0.402366         3.212073
 C         0.321701        -1.875372         3.012967
 C        -0.930918        -0.937693         2.490100
 C        -0.892416        -0.386816         1.048823
 C         0.451257         0.240908         0.881913
 C         0.841014         1.182945        -0.157707
 O         1.125731        -0.234558        -0.294101
 C         1.142836         0.322572         2.270515
 H        -0.222228        -0.603401         5.071699
 H         1.025108        -2.392381         2.319115
 H         0.000260        -2.445629         3.923784
 H        -1.781031        -0.737182         3.092905
 H        -0.860538        -1.235596         0.278009
 H        -1.678629         0.283196         0.733514
 H         0.167076         1.512615        -0.948231
 H         1.698596         1.963028        -0.069714
 H         2.073074        -0.246477         2.178035
 H         1.336494         1.323385         2.653190
