19
Iteration:  3915
 O         0.271285         0.149659         4.574492
 C         0.355382        -0.451454         3.179587
 C         0.225275        -1.889780         2.989232
 C        -0.900560        -1.057535         2.423047
 C        -0.791180        -0.447535         1.064180
 C         0.482441         0.280286         0.958489
 C         0.601326         1.170849        -0.245286
 O         1.155052        -0.164554        -0.213893
 C         1.163165         0.460823         2.287724
 H         0.099616        -0.561657         5.249921
 H         0.826155        -2.494954         2.262630
 H         0.100078        -2.485058         3.831718
 H        -1.867970        -1.159359         2.903653
 H        -0.901111        -1.327815         0.207019
 H        -1.721976         0.265403         0.795192
 H        -0.326072         1.364062        -0.841051
 H         1.397729         1.815148        -0.405304
 H         2.170267        -0.072388         2.315890
 H         1.279257         1.546293         2.746142
