19
Iteration:   904
 O         0.430364        -0.024310         4.598106
 C         0.337917        -0.497240         3.231713
 C        -0.076794        -1.860538         2.842025
 C        -1.048246        -0.831950         2.435866
 C        -0.946861        -0.282617         1.049819
 C         0.523757         0.245555         0.928690
 C         0.707793         1.035550        -0.283774
 O         1.408047        -0.224606        -0.053120
 C         1.064902         0.474683         2.300988
 H         1.383731         0.172241         4.715446
 H         0.453174        -2.313132         2.063741
 H        -0.351986        -2.603692         3.615496
 H        -2.007989        -0.836672         2.988846
 H        -0.960675        -1.183164         0.315162
 H        -1.728447         0.385803         0.710478
 H        -0.002355         0.861475        -1.138033
 H         1.528748         1.818617        -0.419202
 H         2.106825         0.330115         2.235658
 H         0.926403         1.377584         2.858398
