19
Iteration:   113
 O         0.089283        -0.088083         4.624833
 C         0.260767        -0.347397         3.232273
 C         0.372572        -1.706233         2.712945
 C        -0.844928        -0.888865         2.488067
 C        -1.022123        -0.107537         1.198506
 C         0.471856         0.300225         0.974581
 C         0.949945         0.930504        -0.338973
 O         1.127826        -0.510902        -0.209771
 C         1.113223         0.550184         2.312542
 H         0.650485        -0.756283         5.115647
 H         0.955208        -2.002455         1.822264
 H         0.206629        -2.640839         3.363595
 H        -1.768760        -1.177655         3.000267
 H        -1.412577        -0.702209         0.445764
 H        -1.578314         0.783973         1.485969
 H         0.185187         1.102713        -1.028096
 H         1.890464         1.635893        -0.239166
 H         2.222769         0.340265         2.507947
 H         1.054371         1.650810         2.645024
