19
Iteration:  1305
 O         0.194310         0.049627         4.514145
 C         0.362323        -0.458343         3.246299
 C         0.130816        -1.983075         2.921914
 C        -0.972537        -0.913507         2.475958
 C        -0.957229        -0.273231         1.072722
 C         0.441805         0.300395         0.899382
 C         0.878385         1.123263        -0.264003
 O         1.227215        -0.237038        -0.140920
 C         1.171617         0.401526         2.277879
 H         0.991508        -0.149192         5.087878
 H         0.771252        -2.519183         2.189863
 H        -0.209131        -2.554829         3.795400
 H        -1.813196        -0.910475         3.113833
 H        -1.111370        -1.034048         0.357410
 H        -1.655457         0.562573         0.964068
 H        -0.013276         1.436633        -0.965933
 H         1.668791         1.838540        -0.276616
 H         2.190022        -0.005107         2.292946
 H         1.274502         1.397719         2.626137
