19
Iteration:  2171charge 0 multiplicity 1
 O         0.218617        -0.144146         4.540364
 C         0.366691        -0.452016         3.153524
 C         0.308052        -1.800149         2.592013
 C        -0.862077        -0.950113         2.410364
 C        -1.043693        -0.042104         1.204581
 C         0.383558         0.447826         0.947651
 C         0.910892         0.915399        -0.284098
 O         1.227042        -0.541781         0.099023
 C         0.949909         0.673291         2.300602
 H         1.080419         0.162969         4.823323
 H         0.985186        -2.178787         1.858537
 H         0.183461        -2.548947         3.324916
 H        -1.684038        -1.232563         3.104970
 H        -1.324876        -0.620082         0.282828
 H        -1.690376         0.881917         1.523459
 H         0.301032         0.791563        -1.159994
 H         1.792337         1.456974        -0.267998
 H         2.064933         0.499557         2.347111
 H         0.501133         1.671808         2.763493
