19
Iteration:   493
 O         0.178503         0.018109         4.538339
 C         0.349525        -0.450889         3.171873
 C         0.355586        -1.901731         2.685321
 C        -0.849675        -0.952341         2.431696
 C        -1.018132        -0.089498         1.182621
 C         0.392506         0.441493         0.969337
 C         0.911527         0.852990        -0.377065
 O         1.126122        -0.459576         0.051836
 C         1.051187         0.622296         2.324601
 H         0.808028        -0.520225         5.095124
 H         1.144373        -2.096613         1.963181
 H         0.233033        -2.753664         3.433600
 H        -1.879684        -1.271841         2.754615
 H        -1.382622        -0.661504         0.333246
 H        -1.621313         0.766122         1.417447
 H         0.266761         1.050870        -1.246499
 H         1.777668         1.680500        -0.374335
 H         2.180087         0.479691         2.328739
 H         0.786289         1.545803         2.917051
