19
Iteration:  2575charge 0 multiplicity 1
 O         0.287351         0.102068         4.544958
 C         0.260169        -0.565756         3.228509
 C         0.265329        -1.924526         2.695260
 C        -0.894835        -0.970673         2.410756
 C        -0.974597        -0.105356         1.156186
 C         0.445163         0.268454         0.916898
 C         0.904465         1.000387        -0.263290
 O         1.209860        -0.415351         0.007717
 C         0.960811         0.616548         2.324895
 H         1.098521        -0.244193         4.916053
 H         1.024180        -2.252836         1.984935
 H         0.017975        -2.742196         3.272513
 H        -1.835772        -1.373768         2.928986
 H        -1.285278        -0.609948         0.254951
 H        -1.609842         0.664401         1.379870
 H         0.163519         1.338660        -1.070181
 H         1.752593         1.812265        -0.207699
 H         2.003189         0.390696         2.173264
 H         0.619794         1.623183         2.621566
