19
Iteration:  3399charge 0 multiplicity 1
 O         0.165785        -0.105342         4.567979
 C         0.362162        -0.407302         3.224569
 C         0.292811        -1.853450         2.668777
 C        -0.898876        -0.818229         2.512641
 C        -0.993258        -0.246584         1.150887
 C         0.451423         0.412769         0.971634
 C         0.939090         0.952689        -0.390809
 O         1.114135        -0.403215        -0.029125
 C         1.059674         0.539371         2.382296
 H         1.025240         0.180328         5.012897
 H         0.891015        -2.115243         1.786266
 H         0.143586        -2.547624         3.444929
 H        -1.873450        -0.972395         3.031960
 H        -1.197295        -0.897866         0.261509
 H        -1.740455         0.495421         1.181965
 H         0.312435         0.953409        -1.373469
 H         1.856313         1.572866        -0.547627
 H         2.141508         0.373081         2.314674
 H         0.901569         1.563542         2.755411
