19
Iteration:  4228charge 0 multiplicity 1
 O         0.266046         0.120082         4.451520
 C         0.321404        -0.427236         3.246791
 C         0.408415        -1.873933         2.928005
 C        -0.822680        -1.040682         2.542164
 C        -0.959975        -0.511741         1.144043
 C         0.375936         0.226469         0.814667
 C         0.686488         1.206769        -0.152969
 O         1.224990        -0.193773        -0.238114
 C         1.085225         0.431747         2.282473
 H        -0.572519        -0.031003         4.914354
 H         1.101244        -2.205261         2.124666
 H         0.283275        -2.507509         3.934286
 H        -1.727569        -1.152741         3.236556
 H        -1.271490        -1.128046         0.366716
 H        -1.840954         0.234757         1.006580
 H        -0.051247         1.550072        -0.924269
 H         1.383270         1.949273         0.191186
 H         2.180920         0.188208         2.301826
 H         1.033047         1.571770         2.484388
