19
Iteration:   792charge 0 multiplicity 1
 O         0.156711        -0.131975         4.597520
 C         0.367063        -0.485917         3.154687
 C         0.314822        -1.808547         2.688462
 C        -0.878330        -0.910694         2.439343
 C        -1.024425        -0.045237         1.184439
 C         0.436421         0.355246         0.942332
 C         0.925392         0.898527        -0.391173
 O         1.185405        -0.484804         0.068075
 C         1.018859         0.675296         2.230152
 H         0.957790        -0.404807         5.156968
 H         1.162922        -2.105996         1.918525
 H         0.231213        -2.528296         3.507972
 H        -1.758415        -1.171164         3.064197
 H        -1.613154        -0.340582         0.240094
 H        -1.437085         0.882037         1.563876
 H         0.144607         0.905134        -1.188986
 H         1.737340         1.672728        -0.217003
 H         2.123795         0.705282         2.422759
 H         0.558422         1.524463         2.626557
