19
Iteration:  3532charge 0 multiplicity 1
 O         0.247924         0.037209         4.538110
 C         0.336906        -0.501488         3.263667
 C         0.023041        -1.900636         3.051685
 C        -0.985964        -0.813972         2.598960
 C        -0.943050        -0.421703         1.080143
 C         0.477873         0.123135         0.852928
 C         0.697907         1.174996        -0.234572
 O         1.467471        -0.082514        -0.287970
 C         1.164982         0.307825         2.232061
 H         0.942653         0.758217         4.586511
 H         0.580934        -2.460514         2.242505
 H        -0.112841        -2.626828         3.881881
 H        -1.984378        -0.914335         2.928893
 H        -1.130510        -1.272692         0.387412
 H        -1.668538         0.306561         0.842059
 H        -0.212187         1.098065        -0.826678
 H         1.250054         2.235504        -0.179250
 H         2.239461         0.156260         2.044360
 H         0.902307         1.253929         2.672433
