19
Iteration:  3368
 O         0.316867        -0.312936         4.596221
 C         0.381860        -0.323498         3.158441
 C         0.171733        -1.762262         2.676361
 C        -0.934397        -0.792092         2.495590
 C        -0.996783        -0.188636         1.132885
 C         0.392163         0.316334         0.932824
 C         0.946274         0.908954        -0.283397
 O         1.249264        -0.464297         0.069393
 C         0.932935         0.718016         2.218577
 H         1.084022        -0.051180         5.088874
 H         0.669490        -2.277957         1.834823
 H         0.183748        -2.392443         3.538266
 H        -1.861419        -0.874466         3.041450
 H        -1.321311        -0.748777         0.210839
 H        -1.682947         0.674554         1.317056
 H         0.351847         0.854422        -1.190271
 H         1.829661         1.570107        -0.200469
 H         2.041565         0.839964         2.073845
 H         0.426778         1.730448         2.390750
