19
Iteration:  3019
 O         0.342649        -0.090086         4.590940
 C         0.312998        -0.422383         3.191160
 C         0.179059        -1.915241         2.793575
 C        -0.912656        -0.935983         2.467764
 C        -1.052714        -0.140090         1.141310
 C         0.379447         0.393270         0.898798
 C         0.909058         0.939735        -0.362543
 O         1.338420        -0.341129         0.012753
 C         0.999229         0.642754         2.230103
 H         0.425067        -0.937891         5.055723
 H         0.743947        -2.454982         2.083499
 H        -0.044813        -2.520503         3.627818
 H        -1.818133        -1.134838         2.956138
 H        -1.268823        -0.695295         0.273273
 H        -1.744429         0.650030         1.337696
 H         0.246719         0.742764        -1.259965
 H         1.609473         1.771014        -0.296054
 H         2.074494         0.598658         2.344700
 H         0.619181         1.563874         2.621007
