19
Iteration:  3423
 O         0.189270         0.038247         4.629944
 C         0.228868        -0.399354         3.239639
 C         0.361505        -1.914541         2.814345
 C        -0.954029        -0.979739         2.417078
 C        -1.029445        -0.093284         1.149886
 C         0.470657         0.298046         0.908159
 C         0.800760         1.028419        -0.266715
 O         1.269123        -0.442239        -0.133192
 C         1.111319         0.511054         2.252183
 H         0.879201        -0.430055         5.105114
 H         1.205422        -2.120711         2.163807
 H        -0.096795        -2.740577         3.457549
 H        -1.817160        -1.296974         2.898868
 H        -1.444800        -0.428906         0.169587
 H        -1.576232         0.838992         1.450490
 H         0.136182         1.153255        -1.129101
 H         1.639723         1.819732        -0.258434
 H         2.156967         0.091243         2.145257
 H         1.206922         1.592901         2.598272
