19
Iteration:  2581charge 0 multiplicity 1
 O         0.292637         0.108041         4.562049
 C         0.286236        -0.485989         3.218639
 C         0.244756        -1.949112         2.688232
 C        -0.933171        -1.004138         2.427942
 C        -0.987386        -0.135049         1.154467
 C         0.453345         0.320292         0.907904
 C         0.881893         1.012887        -0.267815
 O         1.260007        -0.389086        -0.027838
 C         0.964950         0.516645         2.342449
 H         1.124944        -0.150004         5.063438
 H         0.964006        -2.214463         1.907594
 H        -0.128660        -2.826719         3.330875
 H        -1.773529        -1.265036         2.999970
 H        -1.371691        -0.697282         0.265762
 H        -1.730509         0.786780         1.285286
 H         0.233363         1.109292        -1.118611
 H         1.561264         1.778831        -0.140395
 H         2.107469         0.508443         2.341431
 H         0.748214         1.583533         2.580972
