19
Iteration:  4369
 O         0.219314        -0.106384         4.549959
 C         0.430514        -0.402263         3.167468
 C         0.443083        -1.776875         2.830456
 C        -0.858830        -1.019983         2.477382
 C        -1.052791        -0.323044         1.163805
 C         0.337463         0.285978         0.849209
 C         0.741956         1.059978        -0.293586
 O         1.227287        -0.322431        -0.022254
 C         1.018040         0.593163         2.287716
 H         0.826986         0.648621         4.534760
 H         1.069640        -2.221651         2.015380
 H         0.309285        -2.426928         3.637527
 H        -1.643890        -1.348512         3.192890
 H        -1.303046        -0.971834         0.303561
 H        -1.811218         0.492232         1.034148
 H         0.024122         1.127536        -1.071651
 H         1.552188         1.703455        -0.192136
 H         2.132341         0.733969         2.349530
 H         0.488464         1.536967         2.688896
