19
Iteration:  4548charge 0 multiplicity 1
 O         0.151844        -0.078042         4.747015
 C         0.415020        -0.398110         3.300249
 C         0.429988        -1.939685         2.779585
 C        -0.802250        -1.032064         2.545676
 C        -0.964681        -0.373438         1.109693
 C         0.350101         0.322248         0.857644
 C         0.677870         1.105848        -0.401660
 O         1.259806        -0.259014        -0.158898
 C         1.017767         0.603336         2.245761
 H         0.358743         0.883923         4.887930
 H         1.001826        -2.184014         1.771944
 H         0.443912        -2.686315         3.582366
 H        -1.660588        -0.920532         3.251890
 H        -1.122605        -1.233086         0.517016
 H        -1.907037         0.292902         1.089017
 H         0.060936         0.997853        -1.317561
 H         1.261771         1.966986        -0.280243
 H         2.145358         0.544770         2.045022
 H         0.850171         1.689845         2.528769
