19
Iteration:  1095
 O         0.428638        -0.174057         4.567294
 C         0.299503        -0.421284         3.178531
 C         0.139307        -1.854236         2.607293
 C        -1.038780        -0.795752         2.516095
 C        -1.105773        -0.187052         1.120212
 C         0.391319         0.417692         0.926708
 C         1.012686         0.889174        -0.370001
 O         1.335584        -0.412210         0.157401
 C         0.951248         0.642100         2.282462
 H         1.249502        -0.376275         5.008270
 H         0.823415        -2.229238         1.749635
 H        -0.049508        -2.618139         3.480263
 H        -1.991282        -0.962415         3.010606
 H        -1.365262        -0.923374         0.405899
 H        -1.802892         0.695112         1.098625
 H         0.419115         0.819284        -1.290892
 H         1.615907         1.865523        -0.204961
 H         2.022399         0.646361         2.105196
 H         0.566456         1.595010         2.638602
