19
Iteration:  4419
 O         0.224879        -0.179636         4.677862
 C         0.416880        -0.393841         3.237491
 C         0.542113        -1.787874         2.694888
 C        -0.868850        -0.934031         2.460812
 C        -0.981148        -0.226844         1.155497
 C         0.363811         0.438457         0.902210
 C         0.782923         0.890111        -0.430227
 O         1.175325        -0.412134         0.007010
 C         0.831611         0.676861         2.340015
 H         0.825885         0.548596         4.847437
 H         1.255497        -1.675736         1.864544
 H         0.581045        -2.782741         3.227629
 H        -1.725665        -1.309988         3.019636
 H        -1.172035        -0.809338         0.205118
 H        -1.790017         0.471535         1.145674
 H        -0.035032         0.666128        -1.237681
 H         1.619256         1.612970        -0.611187
 H         1.919309         0.590078         2.178732
 H         0.570590         1.619008         2.809182
