19
Iteration:  1975
 O         0.347544         0.065414         4.557682
 C         0.316336        -0.472757         3.246303
 C         0.051918        -1.904827         2.980253
 C        -0.969035        -0.892524         2.448103
 C        -0.951774        -0.406765         0.990671
 C         0.421325         0.283352         0.923626
 C         0.880378         1.178873        -0.189534
 O         1.294933        -0.181227        -0.178287
 C         1.077370         0.362154         2.250080
 H         0.746444        -0.555411         5.156152
 H         0.723109        -2.594130         2.474595
 H        -0.521833        -2.336058         3.823304
 H        -1.921485        -0.791700         2.946960
 H        -1.119083        -1.107442         0.183325
 H        -1.763519         0.198822         0.761925
 H         0.089963         1.493098        -1.026480
 H         1.744813         1.856178        -0.082226
 H         2.171514        -0.027642         2.141337
 H         1.161189         1.380518         2.477595
