19
Iteration:  1445charge 0 multiplicity 1
 O         0.488442        -0.036230         4.479481
 C         0.358425        -0.501482         3.177000
 C         0.056467        -1.877736         2.705891
 C        -1.018514        -0.826596         2.509334
 C        -1.002055        -0.241093         1.090052
 C         0.403834         0.316949         0.957240
 C         0.850855         0.939466        -0.277831
 O         1.434500        -0.328748         0.084972
 C         0.907583         0.584088         2.307507
 H         0.333790        -0.748666         5.164637
 H         0.486616        -2.159392         1.731467
 H        -0.399466        -2.687859         3.334410
 H        -1.879664        -0.686025         3.149945
 H        -1.176251        -0.884245         0.260669
 H        -1.501637         0.762476         1.049688
 H         0.273377         0.909197        -1.204654
 H         1.537157         1.683151        -0.346369
 H         1.943179         0.709825         2.297677
 H         0.458535         1.640408         2.630071
