19
Iteration:  1321
 O         0.202793         0.089858         4.575866
 C         0.229068        -0.515882         3.170393
 C         0.166401        -1.950584         2.990242
 C        -0.855740        -0.979628         2.414514
 C        -0.979475        -0.173421         1.084793
 C         0.435465         0.345090         0.925248
 C         0.795613         1.133244        -0.227601
 O         1.280884        -0.284685        -0.153562
 C         1.170544         0.281286         2.244764
 H         1.135154         0.259321         4.927175
 H         0.987658        -2.389523         2.350673
 H        -0.272866        -2.460338         3.832656
 H        -1.909065        -1.142917         2.775874
 H        -1.412618        -0.556968         0.052594
 H        -1.694573         0.643915         1.357664
 H         0.257184         1.255258        -1.100788
 H         1.638379         1.880107        -0.013395
 H         2.224805        -0.017510         1.944168
 H         1.264812         1.387270         2.610565
