19
Iteration:  2223
 O         0.285828        -0.143953         4.653055
 C         0.291534        -0.379004         3.235669
 C         0.343797        -1.780549         2.746430
 C        -0.922023        -0.854713         2.408418
 C        -1.060265        -0.138265         1.076086
 C         0.344896         0.353191         0.927076
 C         0.947359         0.867635        -0.250727
 O         1.170865        -0.446063        -0.063442
 C         1.037105         0.651702         2.262983
 H         0.913761        -0.798861         4.946330
 H         1.088297        -1.996942         1.957037
 H         0.121328        -2.646879         3.407349
 H        -1.839718        -1.271209         2.836149
 H        -1.331636        -0.847842         0.287176
 H        -1.626650         0.774731         1.213484
 H         0.371676         1.193550        -1.140618
 H         1.865799         1.538917        -0.054938
 H         2.094202         0.592855         2.273662
 H         0.745541         1.683239         2.696349
