19
Iteration:   662
 O         0.239340         0.039956         4.607133
 C         0.267425        -0.332621         3.255747
 C         0.224625        -1.843349         2.788512
 C        -0.930544        -0.870594         2.444684
 C        -0.926904        -0.242493         1.042793
 C         0.516646         0.265541         0.965662
 C         0.863403         1.104871        -0.201121
 O         1.118296        -0.403653        -0.205224
 C         1.199625         0.364083         2.319428
 H        -0.487939        -0.433472         5.034559
 H         1.032929        -2.130042         2.088924
 H        -0.044196        -2.608602         3.609510
 H        -1.884714        -0.960130         3.053830
 H        -1.234327        -1.050739         0.252054
 H        -1.607592         0.599250         0.906901
 H        -0.071243         1.397190        -0.813194
 H         1.824633         1.703796        -0.378393
 H         2.228611        -0.040594         2.304941
 H         1.455804         1.424141         2.842704
