19
Iteration:  1358charge 0 multiplicity 1
 O         0.069107         0.045554         4.545703
 C         0.303823        -0.420424         3.252669
 C         0.199327        -1.990527         2.812900
 C        -0.921073        -0.893095         2.544720
 C        -0.948448        -0.233980         1.154647
 C         0.456670         0.304566         0.916001
 C         0.892171         1.126070        -0.190040
 O         1.199731        -0.327312        -0.276029
 C         1.228591         0.346286         2.289053
 H         0.889405         0.525310         4.802572
 H         0.937194        -2.255413         1.963580
 H         0.223787        -2.765697         3.639521
 H        -1.786856        -1.012314         3.149190
 H        -1.263226        -0.806408         0.354104
 H        -1.648460         0.648864         1.261664
 H         0.252973         1.498682        -1.032940
 H         1.786760         1.658287        -0.083966
 H         2.249420         0.115618         2.384391
 H         1.018793         1.454376         2.605553
