19
Iteration:  4239charge 0 multiplicity 1
 O         0.294908         0.148506         4.547605
 C         0.339052        -0.373786         3.183089
 C         0.373902        -1.881416         2.970202
 C        -0.813835        -1.090082         2.455099
 C        -0.970210        -0.552934         1.062414
 C         0.403441         0.205476         0.937598
 C         0.684689         1.246545        -0.186779
 O         1.173301        -0.177966        -0.178952
 C         1.136308         0.448097         2.219014
 H        -0.597892        -0.063711         4.975757
 H         1.004073        -2.370483         2.184984
 H         0.026439        -2.654478         3.765846
 H        -1.838501        -1.224330         2.920879
 H        -1.254240        -1.215850         0.315908
 H        -1.704675         0.258394         1.327608
 H        -0.100577         1.401806        -0.945904
 H         1.421837         2.039099        -0.069589
 H         2.218948         0.160431         2.160321
 H         1.007433         1.549674         2.496810
