19
Iteration:  4929
 O         0.247969        -0.046400         4.541635
 C         0.334713        -0.333708         3.202012
 C         0.574290        -1.756643         2.915802
 C        -0.779732        -1.241238         2.498460
 C        -0.875442        -0.559592         1.142224
 C         0.361905         0.281742         0.920924
 C         0.504319         1.059672        -0.323164
 O         1.244287        -0.117411        -0.124056
 C         0.995200         0.675970         2.284515
 H        -0.537036         0.508968         4.731100
 H         1.329292        -2.126505         2.156000
 H         0.407576        -2.413620         3.771554
 H        -1.697462        -1.726297         2.879352
 H        -0.981583        -1.290736         0.343539
 H        -1.828086         0.036592         1.099070
 H        -0.312727         1.230613        -1.004765
 H         1.097255         1.941199        -0.285994
 H         2.092507         0.670270         2.004441
 H         0.685297         1.701453         2.660061
