19
Iteration:  3573
 O         0.197844         0.116826         4.494790
 C         0.306009        -0.425340         3.211336
 C         0.207933        -1.860015         3.040285
 C        -0.974123        -0.927527         2.493302
 C        -0.906260        -0.436983         1.023820
 C         0.480599         0.350982         0.959143
 C         0.791078         1.188826        -0.210842
 O         1.158068        -0.223012        -0.250677
 C         1.239348         0.304573         2.249738
 H         0.305911        -0.492693         5.220513
 H         0.861122        -2.419371         2.348743
 H         0.062389        -2.430571         4.009362
 H        -1.865716        -1.237903         2.988864
 H        -0.844974        -1.319807         0.290642
 H        -1.811296         0.116759         0.794583
 H        -0.051309         1.628510        -0.768576
 H         1.810291         1.717837        -0.087892
 H         2.248459        -0.113319         2.264528
 H         1.354896         1.353783         2.545574
