19
Iteration:  2889charge 0 multiplicity 1
 O         0.132621        -0.010963         4.578329
 C         0.255693        -0.370833         3.262614
 C         0.407787        -1.844883         2.803248
 C        -0.856720        -0.959074         2.432137
 C        -0.972595        -0.196734         1.105247
 C         0.406169         0.308613         0.925566
 C         0.825804         1.038173        -0.312557
 O         1.199514        -0.379835        -0.050266
 C         1.133852         0.511907         2.279908
 H         0.511929        -0.787073         5.076880
 H         0.949857        -2.184114         1.959049
 H         0.100317        -2.631287         3.463109
 H        -1.803160        -1.275596         2.966424
 H        -1.423884        -0.688773         0.292633
 H        -1.610980         0.703683         1.239723
 H        -0.010748         1.090952        -1.088446
 H         1.597329         1.850438        -0.337041
 H         2.185424         0.227762         2.160002
 H         1.290897         1.527721         2.591482
