19
Iteration:  3203charge 0 multiplicity 1
 O         0.198395         0.052736         4.508844
 C         0.334831        -0.476493         3.223473
 C         0.156850        -2.013867         2.896620
 C        -0.892608        -0.862541         2.574321
 C        -0.939435        -0.331911         1.081839
 C         0.405664         0.317071         0.929484
 C         0.839408         1.139239        -0.295326
 O         1.287224        -0.198818        -0.156424
 C         1.094007         0.409381         2.237990
 H         0.784610        -0.258108         5.229889
 H         0.649054        -2.521337         2.151275
 H         0.050669        -2.641695         3.783314
 H        -1.739862        -0.784833         3.327599
 H        -1.215743        -1.238575         0.437433
 H        -1.708703         0.523753         1.122125
 H         0.267816         1.142330        -1.241236
 H         1.531198         1.921037        -0.212324
 H         2.093780         0.038017         1.954453
 H         1.036225         1.418429         2.745216
