19
Iteration:  4136charge 0 multiplicity 1
 O         0.368753        -0.043654         4.578582
 C         0.352024        -0.427689         3.206930
 C         0.438655        -1.868214         2.721402
 C        -0.883246        -0.904709         2.621586
 C        -0.960022        -0.343624         1.155447
 C         0.342448         0.229046         0.896311
 C         0.720853         0.988656        -0.407903
 O         1.316666        -0.228841         0.008332
 C         0.892307         0.622563         2.216943
 H        -0.341478        -0.272906         5.206022
 H         0.863432        -2.081860         1.777726
 H         0.253795        -2.627248         3.353539
 H        -1.737160        -1.262385         3.096215
 H        -1.354593        -1.168346         0.455810
 H        -1.751801         0.359157         1.071986
 H         0.116147         1.034779        -1.282069
 H         1.302254         1.934903        -0.247931
 H         2.002148         0.731554         2.313080
 H         0.365146         1.585830         2.663465
