19
Iteration:  4694charge 0 multiplicity 1
 O         0.280023         0.024955         4.538615
 C         0.308253        -0.432239         3.226204
 C         0.456440        -1.813289         2.808460
 C        -0.811073        -1.055883         2.537993
 C        -0.894663        -0.516742         1.232208
 C         0.243826         0.353105         0.917685
 C         0.665010         1.088786        -0.408380
 O         1.323933        -0.194368        -0.107930
 C         0.897649         0.597282         2.310855
 H         0.671120        -0.655020         5.134358
 H         0.928683        -2.116191         1.892775
 H         0.489052        -2.559371         3.624254
 H        -1.747540        -1.307926         3.027369
 H        -1.094086        -1.321673         0.393370
 H        -1.740204         0.169742         1.149249
 H         0.200752         0.835308        -1.383485
 H         1.367683         2.050047        -0.432768
 H         1.963386         0.791456         2.187391
 H         0.419896         1.604653         2.741480
