19
Iteration:  4409
 O         0.202415        -0.142788         4.674310
 C         0.369294        -0.445887         3.294107
 C         0.497120        -1.729019         2.610119
 C        -0.802720        -1.032094         2.502036
 C        -1.047889        -0.221771         1.166227
 C         0.389325         0.392994         0.904586
 C         0.757048         0.904814        -0.525772
 O         1.196647        -0.402713         0.010463
 C         0.949083         0.700563         2.386175
 H         0.604524         0.667018         5.007475
 H         1.270672        -1.971190         1.891784
 H         0.397232        -2.647455         3.229786
 H        -1.656479        -1.402915         3.084302
 H        -1.292765        -0.987483         0.318651
 H        -1.817131         0.516832         1.259276
 H        -0.001361         1.123197        -1.417417
 H         1.615352         1.610628        -0.584889
 H         2.022963         0.706273         2.318739
 H         0.638906         1.692200         2.619478
