19
Iteration:  4306
 O         0.316621        -0.004074         4.588470
 C         0.341560        -0.342005         3.149316
 C         0.273213        -1.853164         2.970213
 C        -0.848677        -0.919213         2.525147
 C        -0.895160        -0.526260         1.041650
 C         0.375421         0.179510         0.909423
 C         0.551380         1.116209        -0.197484
 O         1.368146        -0.179102        -0.185952
 C         1.023876         0.573428         2.217943
 H         0.585289        -0.759947         5.097409
 H         0.880559        -2.216496         2.064705
 H        -0.073857        -2.477625         3.753057
 H        -1.809767        -1.015206         3.056579
 H        -1.015857        -1.310211         0.403495
 H        -1.734682         0.211519         0.887282
 H        -0.193459         1.146139        -0.957882
 H         1.154563         2.054844        -0.102128
 H         2.122976         0.410527         2.068690
 H         0.782509         1.576758         2.614941
