19
Iteration:  4774
 O         0.177337        -0.165904         4.617287
 C         0.376953        -0.367627         3.203922
 C         0.586021        -1.740777         2.699139
 C        -0.715523        -1.073605         2.512404
 C        -1.006029        -0.411129         1.186969
 C         0.280005         0.354305         0.869118
 C         0.671243         0.933154        -0.450219
 O         1.295173        -0.279846         0.054874
 C         0.809485         0.790752         2.275554
 H         1.087490         0.076033         4.906118
 H         1.292183        -1.907210         1.912268
 H         0.557730        -2.535967         3.452809
 H        -1.511620        -1.416868         3.172484
 H        -1.252571        -1.231592         0.485659
 H        -1.835104         0.301530         1.244798
 H         0.100874         0.947632        -1.395724
 H         1.274624         1.871541        -0.364802
 H         1.916306         0.860275         2.405876
 H         0.286238         1.765584         2.591595
