19
Iteration:  2181charge 0 multiplicity 1
 O         0.202975        -0.158533         4.491661
 C         0.361681        -0.393562         3.169549
 C         0.371227        -1.829980         2.591973
 C        -0.905890        -0.979068         2.485190
 C        -1.051501        -0.084587         1.225795
 C         0.376408         0.394241         0.963770
 C         1.042981         0.852422        -0.319808
 O         1.136575        -0.500087         0.075498
 C         0.969497         0.701266         2.346730
 H         1.050376         0.152104         4.867290
 H         0.831987        -1.966622         1.623214
 H         0.218767        -2.646193         3.265286
 H        -1.808075        -1.157931         3.090241
 H        -1.440850        -0.553885         0.270943
 H        -1.846580         0.734072         1.460010
 H         0.515432         1.221521        -1.183367
 H         1.780723         1.557247        -0.174911
 H         2.085585         0.811573         2.277314
 H         0.705965         1.864881         2.600010
