19
Iteration:  4042
 O         0.227005        -0.209469         4.555601
 C         0.300393        -0.341744         3.164140
 C         0.515741        -1.772555         2.698445
 C        -0.898226        -0.999798         2.509975
 C        -1.037006        -0.241209         1.223580
 C         0.404964         0.289745         0.939336
 C         0.720956         0.936353        -0.433897
 O         1.312165        -0.379190         0.106743
 C         0.932702         0.761779         2.241126
 H         1.089035        -0.017445         4.907724
 H         1.020483        -2.032220         1.639700
 H         0.631177        -2.520498         3.486241
 H        -1.757316        -1.184844         3.086638
 H        -1.455462        -0.891584         0.498757
 H        -1.753627         0.600797         1.325660
 H        -0.051418         0.955287        -1.236021
 H         1.433955         1.772396        -0.535333
 H         1.993193         0.954103         2.293885
 H         0.454350         1.605827         2.553693
