19
Iteration:  4948charge 0 multiplicity 1
 O         0.150211        -0.053307         4.566406
 C         0.352352        -0.383704         3.178224
 C         0.591737        -1.859649         2.913582
 C        -0.689878        -1.141632         2.531158
 C        -0.924114        -0.602000         1.132071
 C         0.323962         0.254150         0.901508
 C         0.548169         1.161489        -0.249742
 O         1.270399        -0.165141        -0.155573
 C         0.906103         0.695985         2.233234
 H         0.554294         0.837181         4.555804
 H         1.246492        -2.086956         2.046975
 H         0.834792        -2.437713         3.760495
 H        -1.553245        -1.165319         3.119928
 H        -1.017901        -1.475933         0.314920
 H        -1.825075         0.078957         1.067275
 H        -0.231065         1.194081        -1.118863
 H         0.999336         2.131379        -0.258338
 H         1.952656         0.659472         2.464083
 H         0.514507         1.682708         2.517971
