19
Iteration:  4934
 O         0.219382        -0.069204         4.513400
 C         0.320087        -0.313885         3.176208
 C         0.597732        -1.789077         2.884640
 C        -0.766647        -1.208841         2.519275
 C        -0.874271        -0.614007         1.154473
 C         0.377575         0.294190         0.918076
 C         0.514340         1.061200        -0.282816
 O         1.233795        -0.105823        -0.142314
 C         0.969504         0.694691         2.303483
 H        -0.269507         0.765226         4.738101
 H         1.307201        -2.198441         2.209417
 H         0.311521        -2.342352         3.794337
 H        -1.625660        -1.627212         3.091750
 H        -1.085263        -1.249160         0.253291
 H        -1.762837         0.008083         1.232881
 H        -0.300333         1.074570        -1.050783
 H         1.261415         1.925787        -0.182206
 H         2.030902         0.652836         2.082300
 H         0.733054         1.723660         2.535233
