19
Iteration:  2001
 O         0.134698         0.073136         4.624020
 C         0.242406        -0.435353         3.258354
 C         0.106287        -1.913049         2.923400
 C        -0.956293        -0.868104         2.531307
 C        -0.831222        -0.389800         1.116614
 C         0.576530         0.242647         0.912267
 C         0.829856         1.205924        -0.255728
 O         1.164461        -0.196303        -0.361775
 C         1.235115         0.305227         2.286539
 H         0.660995        -0.503976         5.171651
 H         0.909429        -2.321598         2.303129
 H        -0.153835        -2.621752         3.676760
 H        -1.911226        -0.648079         3.057616
 H        -0.992325        -1.169972         0.356959
 H        -1.652489         0.319050         0.808802
 H        -0.001888         1.534250        -0.907316
 H         1.760943         1.838632        -0.108412
 H         2.227576        -0.229799         2.405087
 H         1.431187         1.436374         2.483084
