19
Iteration:  4233
 O         0.274160         0.129275         4.496935
 C         0.346724        -0.382468         3.203097
 C         0.403269        -1.891307         2.963804
 C        -0.819628        -1.065598         2.487646
 C        -0.967493        -0.550527         1.101910
 C         0.381745         0.209643         0.906824
 C         0.687603         1.260634        -0.190311
 O         1.198871        -0.203066        -0.204321
 C         1.122471         0.444546         2.261209
 H        -0.532338         0.008033         5.010186
 H         0.989045        -2.241713         2.132191
 H         0.095081        -2.481643         3.727794
 H        -1.771620        -1.122150         2.970103
 H        -1.415937        -1.215802         0.259904
 H        -1.746473         0.207073         1.235632
 H        -0.092668         1.461559        -0.896011
 H         1.420237         2.071251         0.119338
 H         2.153855         0.144797         2.285591
 H         0.991070         1.478498         2.380215
