19
Iteration:  3557
 O         0.197591         0.150564         4.509776
 C         0.329795        -0.428985         3.212358
 C         0.042264        -1.948625         3.001236
 C        -0.911557        -0.970389         2.480830
 C        -0.847355        -0.485466         1.111296
 C         0.456839         0.248381         0.923093
 C         0.766462         1.213035        -0.235892
 O         1.218184        -0.155303        -0.214500
 C         1.246261         0.367850         2.257776
 H         1.006451        -0.064889         5.025231
 H         0.721079        -2.528173         2.351887
 H        -0.386393        -2.589307         3.725360
 H        -1.890904        -0.765643         3.034493
 H        -0.909316        -1.236837         0.354425
 H        -1.704160         0.232095         0.918309
 H         0.017114         1.242075        -1.029418
 H         1.435951         2.029999        -0.182464
 H         2.218955        -0.116468         2.020791
 H         1.348091         1.357977         2.767254
