19
Iteration:  4200
 O         0.272121         0.122896         4.625959
 C         0.344606        -0.428109         3.318128
 C         0.358062        -1.910965         2.886667
 C        -0.826396        -1.052648         2.532569
 C        -0.966467        -0.543052         1.142591
 C         0.381100         0.280196         0.819171
 C         0.717308         1.149419        -0.266102
 O         1.234653        -0.168658        -0.261119
 C         1.091924         0.513301         2.255522
 H        -0.568162        -0.122034         4.974910
 H         0.897457        -2.296924         2.032672
 H         0.156010        -2.631222         3.570144
 H        -1.723788        -1.206378         3.101100
 H        -1.248988        -1.215994         0.255031
 H        -1.757604         0.175680         1.151690
 H        -0.089754         1.367337        -0.918933
 H         1.465718         1.987544        -0.189883
 H         2.177198         0.450817         2.223202
 H         0.896629         1.556120         2.422340
