19
Iteration:  4651charge 0 multiplicity 1
 O         0.304020        -0.122310         4.584914
 C         0.352653        -0.341831         3.189030
 C         0.354335        -1.764949         2.873310
 C        -0.842039        -1.008282         2.495914
 C        -0.848623        -0.547033         1.119119
 C         0.388117         0.263796         0.900952
 C         0.556230         1.071313        -0.322984
 O         1.290149        -0.186093        -0.124777
 C         0.988122         0.599868         2.266951
 H         0.333323         0.788633         4.883441
 H         1.088236        -2.227003         2.266633
 H         0.214627        -2.409254         3.748831
 H        -1.742415        -1.359373         2.989178
 H        -0.954880        -1.304926         0.259130
 H        -1.731353         0.058541         1.080943
 H        -0.307545         1.245634        -1.012733
 H         1.159556         2.031311        -0.079663
 H         2.073559         0.645815         2.363309
 H         0.487764         1.609910         2.591596
