19
Iteration:  3883charge 0 multiplicity 1
 O         0.207882         0.067541         4.598709
 C         0.372671        -0.433225         3.196217
 C         0.289080        -1.903147         3.001892
 C        -0.931726        -0.894241         2.572997
 C        -0.958786        -0.508657         1.140655
 C         0.420617         0.188039         0.843695
 C         0.678553         1.161115        -0.219923
 O         1.336793        -0.081205        -0.293315
 C         1.055459         0.388810         2.197739
 H         0.845735        -0.185389         5.254774
 H         0.842501        -2.331639         2.181300
 H         0.044700        -2.493136         3.779814
 H        -1.894864        -0.959372         3.034361
 H        -0.833827        -1.448276         0.465698
 H        -1.766398         0.214858         0.817040
 H        -0.097145         1.505522        -0.946002
 H         1.403971         1.903488        -0.056106
 H         2.058507        -0.010346         1.990769
 H         1.076521         1.472326         2.511247
