19
Iteration:  1038charge 0 multiplicity 1
 O         0.213259        -0.126001         4.566881
 C         0.327095        -0.368880         3.235104
 C         0.139854        -1.871478         2.734180
 C        -0.934230        -0.851737         2.556894
 C        -0.982528        -0.213393         1.125916
 C         0.463832         0.292382         0.912674
 C         0.939248         1.010390        -0.335863
 O         1.246328        -0.376607        -0.063434
 C         1.068000         0.543560         2.284883
 H         1.112397        -0.197060         5.023492
 H         0.651854        -2.227013         1.842061
 H         0.002113        -2.626755         3.540604
 H        -1.740295        -0.727295         3.274411
 H        -1.321626        -0.931116         0.365098
 H        -1.664653         0.646573         1.068351
 H         0.225387         1.176284        -1.197392
 H         1.671816         1.842746        -0.293813
 H         2.097818         0.442677         2.266529
 H         0.858718         1.569870         2.615195
