19
Iteration:   252charge 0 multiplicity 1
 O         0.235011        -0.103799         4.597958
 C         0.360302        -0.348842         3.221419
 C         0.144027        -1.834591         2.879910
 C        -0.872866        -0.768828         2.497834
 C        -0.923118        -0.384091         1.034168
 C         0.443136         0.300992         0.945682
 C         0.878814         0.991675        -0.313636
 O         1.174505        -0.342482        -0.153437
 C         1.071483         0.601492         2.337299
 H         0.789533        -0.736726         5.116955
 H         0.536617        -2.439173         2.014558
 H        -0.140683        -2.620961         3.681597
 H        -1.798664        -0.705811         3.034488
 H        -1.009518        -1.244527         0.202580
 H        -1.627845         0.478263         0.804383
 H         0.251431         1.315786        -1.099703
 H         1.929151         1.484364        -0.226716
 H         2.149529         0.780978         2.198478
 H         0.649420         1.560490         2.654045
