19
Iteration:  1438charge 0 multiplicity 1
 O         0.517083        -0.030871         4.537927
 C         0.306362        -0.511925         3.222172
 C         0.024579        -1.883899         2.725213
 C        -1.021250        -0.827906         2.444331
 C        -1.036142        -0.192412         1.089935
 C         0.484832         0.260237         0.916443
 C         0.813460         0.953110        -0.322354
 O         1.458563        -0.297939         0.069798
 C         0.892920         0.578657         2.311631
 H         0.443935        -0.682750         5.248490
 H         0.618516        -2.202614         1.906812
 H        -0.247936        -2.738174         3.315429
 H        -1.888956        -0.675097         3.192176
 H        -1.240727        -0.851788         0.229139
 H        -1.749451         0.622374         1.059900
 H         0.271495         0.739757        -1.286126
 H         1.530316         1.859696        -0.310088
 H         2.063103         0.628461         2.288158
 H         0.533042         1.476215         2.711782
