19
Iteration:  1075charge 0 multiplicity 1
 O         0.486596        -0.257271         4.679653
 C         0.234649        -0.345727         3.246992
 C         0.085001        -1.742468         2.717287
 C        -0.994563        -0.822900         2.463092
 C        -0.991819        -0.181182         1.011066
 C         0.437842         0.290425         0.820582
 C         0.946241         0.926963        -0.299162
 O         1.292966        -0.425732         0.014160
 C         0.876502         0.665310         2.384457
 H         1.488781        -0.154567         4.709707
 H         0.701931        -2.035337         1.790710
 H        -0.142946        -2.590820         3.447687
 H        -1.945947        -0.927893         3.030838
 H        -1.149361        -1.012054         0.307270
 H        -1.667143         0.701302         0.833403
 H         0.314073         1.040250        -1.179569
 H         1.886856         1.574673        -0.300267
 H         2.050649         0.663442         2.268042
 H         0.370666         1.599415         2.594422
