19
Iteration:  1363charge 0 multiplicity 1
 O         0.058355         0.026232         4.539761
 C         0.369550        -0.442336         3.252224
 C         0.150577        -1.932839         2.788504
 C        -0.856258        -0.877409         2.538426
 C        -0.924529        -0.252123         1.179739
 C         0.457442         0.303453         0.896262
 C         0.908011         1.097976        -0.192717
 O         1.170902        -0.333259        -0.259806
 C         1.173522         0.389762         2.307653
 H         0.861132         0.413951         4.953587
 H         0.896422        -2.184025         2.110439
 H         0.177684        -2.762173         3.450347
 H        -1.840849        -0.824046         3.120514
 H        -1.265150        -0.977852         0.318686
 H        -1.681166         0.520421         1.023474
 H         0.103058         1.479124        -0.883658
 H         1.858896         1.709997         0.070742
 H         2.318175         0.129371         2.258933
 H         1.058467         1.390583         2.574915
