19
Iteration:  4451charge 0 multiplicity 1
 O         0.330859        -0.126475         4.523930
 C         0.429330        -0.333851         3.132791
 C         0.365501        -1.770962         2.698959
 C        -0.905090        -1.077998         2.436329
 C        -1.053012        -0.346186         1.202378
 C         0.318411         0.279146         0.926034
 C         0.832673         0.982852        -0.290472
 O         1.256283        -0.386376         0.093432
 C         0.847654         0.850012         2.248660
 H         1.144674        -0.493381         4.993833
 H         0.996430        -1.976575         1.806427
 H         0.355874        -2.346490         3.663272
 H        -1.717162        -1.336680         3.124634
 H        -1.274490        -0.939366         0.306832
 H        -1.723942         0.485639         1.384422
 H         0.208869         0.823387        -1.254711
 H         1.549280         1.788729        -0.514313
 H         1.967966         0.816011         2.301920
 H         0.575362         1.807733         2.779943
