19
Iteration:   450
 O         0.324101        -0.143064         4.601673
 C         0.278716        -0.385003         3.253111
 C         0.372101        -1.732290         2.749877
 C        -0.935875        -0.794617         2.505999
 C        -1.011324        -0.224474         1.125948
 C         0.361773         0.273012         0.877428
 C         0.936199         0.943247        -0.295262
 O         1.216559        -0.470599        -0.097453
 C         0.990356         0.660189         2.306445
 H        -0.102948        -0.853927         5.121535
 H         0.880553        -2.028897         1.822295
 H         0.220941        -2.457851         3.601792
 H        -1.893431        -1.106451         3.013888
 H        -1.455760        -0.928316         0.366250
 H        -1.728385         0.594330         1.186056
 H         0.294147         1.161579        -1.148910
 H         1.874023         1.606501        -0.145067
 H         2.142443         0.584439         2.187757
 H         0.724467         1.786402         2.370370
