19
Iteration:   348
 O         0.125840        -0.053015         4.621349
 C         0.390504        -0.441409         3.271810
 C         0.179846        -1.814571         2.932902
 C        -0.983636        -0.845494         2.585736
 C        -0.963489        -0.342455         1.054818
 C         0.498092         0.254012         0.860613
 C         0.917366         1.084487        -0.261402
 O         1.170980        -0.322503        -0.260878
 C         1.166542         0.541741         2.248414
 H         0.905874        -0.374031         5.096632
 H         0.654114        -2.251557         2.066607
 H        -0.007432        -2.578011         3.704137
 H        -1.849353        -1.054113         3.179618
 H        -0.909106        -1.146926         0.383909
 H        -1.732924         0.389972         0.814963
 H         0.203906         1.505775        -1.028767
 H         1.872608         1.650875        -0.312313
 H         2.264387         0.427578         2.192981
 H         0.883084         1.627617         2.542057
