19
Iteration:   387charge 0 multiplicity 1
 O         0.479399        -0.009425         4.559535
 C         0.220685        -0.382270         3.241531
 C         0.098136        -1.858770         2.840029
 C        -1.084462        -0.866189         2.450296
 C        -1.038830        -0.333439         1.055232
 C         0.465813         0.254518         0.958047
 C         0.782256         1.009362        -0.296733
 O         1.418532        -0.246871        -0.029359
 C         1.109048         0.500557         2.229612
 H         0.487388        -0.625750         5.335510
 H         0.705642        -2.284317         2.073597
 H         0.011335        -2.466984         3.750937
 H        -2.142651        -0.969676         2.844112
 H        -1.247457        -1.033405         0.154556
 H        -1.832308         0.434638         0.882334
 H         0.066384         0.838030        -1.083235
 H         1.423712         1.825673        -0.268821
 H         2.180877         0.442076         2.298739
 H         0.866771         1.485495         2.518797
