19
Iteration:  2370
 O         0.081075         0.044134         4.441762
 C         0.369584        -0.440371         3.150583
 C         0.084154        -1.945710         2.947887
 C        -0.959077        -0.991880         2.495654
 C        -0.945602        -0.221792         1.202979
 C         0.487744         0.284289         0.955379
 C         0.806027         1.111177        -0.336835
 O         1.273318        -0.177784        -0.164750
 C         1.289433         0.306304         2.268278
 H         0.750954        -0.097368         5.159429
 H         0.923941        -2.297229         2.493190
 H         0.003050        -2.436446         3.910008
 H        -1.731407        -1.014261         3.172300
 H        -1.466604        -0.809880         0.441816
 H        -1.736229         0.572362         1.406128
 H         0.051744         1.315480        -1.028047
 H         1.433075         1.955842        -0.298148
 H         2.291531        -0.116635         2.052829
 H         1.720638         1.269525         2.761939
