19
Iteration:  2046charge 0 multiplicity 1
 O         0.107147         0.081245         4.521931
 C         0.349738        -0.453474         3.238784
 C         0.122829        -1.963183         2.954589
 C        -0.871906        -0.919806         2.520455
 C        -0.925122        -0.260967         1.082521
 C         0.484751         0.241033         0.918062
 C         0.803557         1.158739        -0.217904
 O         1.259149        -0.183052        -0.189367
 C         1.193293         0.278178         2.235498
 H         0.992724         0.171143         4.864478
 H         0.708124        -2.548073         2.201156
 H        -0.329407        -2.624077         3.713856
 H        -1.868223        -0.985072         3.055833
 H        -1.308445        -0.875498         0.274422
 H        -1.663382         0.534591         1.005672
 H         0.004175         1.337881        -0.922172
 H         1.627073         1.920806        -0.282142
 H         2.158894        -0.170815         2.021984
 H         1.433781         1.331243         2.683610
