19
Iteration:   448
 O         0.328659        -0.148816         4.591689
 C         0.293296        -0.388691         3.250545
 C         0.350501        -1.717288         2.761155
 C        -0.923105        -0.801652         2.521959
 C        -1.028655        -0.238420         1.118605
 C         0.379958         0.279941         0.885009
 C         0.930634         0.945913        -0.297264
 O         1.226039        -0.469799        -0.096789
 C         0.971767         0.659522         2.303549
 H        -0.128149        -0.842740         5.144761
 H         0.852340        -2.096055         1.819084
 H         0.153304        -2.438527         3.577437
 H        -1.849209        -1.059654         3.045349
 H        -1.372732        -0.916739         0.357607
 H        -1.719913         0.598374         1.222425
 H         0.311316         1.236605        -1.239526
 H         1.899010         1.645118        -0.217650
 H         2.090368         0.561565         2.168513
 H         0.705994         1.757256         2.407439
