19
Iteration:  4795charge 0 multiplicity 1
 O         0.285479        -0.056746         4.568676
 C         0.404163        -0.355159         3.173093
 C         0.619452        -1.756834         2.759496
 C        -0.820883        -1.097994         2.460791
 C        -1.033894        -0.436876         1.072053
 C         0.354028         0.317549         0.980867
 C         0.612789         0.932635        -0.299120
 O         1.320721        -0.280816         0.066100
 C         0.799036         0.817684         2.248287
 H         0.476491        -0.964921         4.849107
 H         1.158584        -2.027350         1.886175
 H         0.744604        -2.527432         3.529744
 H        -1.773867        -1.309234         2.935681
 H        -1.223564        -1.038149         0.104654
 H        -1.903921         0.198779         1.244067
 H        -0.197959         0.810305        -1.039539
 H         1.184035         1.873516        -0.522299
 H         1.896846         1.002648         2.226257
 H         0.236704         1.758942         2.615969
