19
Iteration:   192charge 0 multiplicity 1
 O         0.354963         0.044168         4.510059
 C         0.312098        -0.427610         3.209477
 C         0.090704        -1.892019         2.698353
 C        -1.000603        -0.869526         2.473415
 C        -1.026524        -0.181361         1.114822
 C         0.418939         0.238362         0.921615
 C         0.711782         0.973103        -0.204581
 O         1.499928        -0.373121         0.079721
 C         1.064603         0.508020         2.212460
 H         1.127239        -0.497849         4.855592
 H         0.637005        -2.245760         1.819273
 H        -0.200556        -2.468847         3.507665
 H        -1.896056        -0.910941         3.077317
 H        -1.287038        -0.878689         0.370390
 H        -1.747004         0.683067         1.098179
 H         0.088811         1.078717        -1.161644
 H         1.392049         1.803774        -0.321787
 H         2.174913         0.410717         2.238860
 H         0.694793         1.524645         2.701602
