19
Iteration:   748charge 0 multiplicity 1
 O         0.384422        -0.227586         4.630200
 C         0.261144        -0.324040         3.240106
 C         0.119498        -1.715988         2.648882
 C        -1.043681        -0.811621         2.561969
 C        -0.980906        -0.248622         1.032897
 C         0.431239         0.313484         0.942297
 C         0.890533         0.950435        -0.376873
 O         1.294084        -0.388914         0.054513
 C         1.041974         0.613084         2.325952
 H         1.334280        -0.406755         4.909398
 H         0.480475        -2.149875         1.654667
 H         0.184211        -2.473977         3.471583
 H        -2.083965        -0.827881         2.960406
 H        -0.942352        -1.184952         0.399834
 H        -1.747192         0.377266         0.675165
 H         0.143418         0.868240        -1.217713
 H         1.819581         1.515372        -0.406761
 H         2.131781         0.700207         2.223702
 H         0.690634         1.548255         2.608004
