19
Iteration:  3157charge 0 multiplicity 1
 O         0.450662         0.017061         4.636505
 C         0.195977        -0.333256         3.256088
 C         0.083322        -1.852491         2.919414
 C        -1.036621        -0.836907         2.448691
 C        -0.830430        -0.452129         1.024348
 C         0.500905         0.231476         0.894958
 C         0.718342         1.141521        -0.224260
 O         1.289840        -0.227027        -0.308838
 C         1.095387         0.404083         2.341252
 H         0.235894        -0.627631         5.293281
 H         0.726627        -2.278248         2.113008
 H        -0.128192        -2.657808         3.582626
 H        -1.947925        -0.825581         2.889910
 H        -0.742680        -1.436898         0.417143
 H        -1.615957         0.220786         0.619795
 H        -0.097842         1.452184        -0.852124
 H         1.484823         1.821489         0.049272
 H         2.029394         0.014100         2.702125
 H         0.998243         1.483823         2.731600
