19
Iteration:  2317
 O         0.286231        -0.006467         4.630843
 C         0.242457        -0.367662         3.207589
 C         0.141666        -1.827483         2.925843
 C        -1.035679        -0.884780         2.492748
 C        -0.943102        -0.402923         1.052733
 C         0.488759         0.246893         0.897561
 C         0.914945         1.120960        -0.183978
 O         1.224147        -0.245132        -0.331108
 C         1.130207         0.436144         2.344276
 H         1.213256        -0.089712         4.973632
 H         0.469504        -2.387782         2.030217
 H        -0.209665        -2.623108         3.635258
 H        -1.959562        -1.148326         2.914032
 H        -0.849346        -1.308776         0.457758
 H        -1.851635         0.174877         0.966076
 H         0.270597         1.644112        -0.828625
 H         1.833911         1.709883         0.042158
 H         2.232283         0.066677         2.224295
 H         0.915280         1.564619         2.666219
