19
Iteration:  3640charge 0 multiplicity 1
 O         0.294843        -0.098054         4.561844
 C         0.278645        -0.417323         3.184269
 C         0.224150        -1.852339         2.843970
 C        -0.891455        -0.957348         2.475816
 C        -0.912017        -0.350259         1.109069
 C         0.411536         0.351563         0.924501
 C         0.679937         1.052221        -0.332764
 O         1.295740        -0.290629         0.007518
 C         1.095292         0.511870         2.257310
 H         0.332318         0.902345         4.606127
 H         1.006032        -2.271863         2.103525
 H        -0.147246        -2.445488         3.675279
 H        -1.775224        -1.036994         3.100253
 H        -1.202123        -0.951247         0.167443
 H        -1.518729         0.551361         1.088903
 H         0.013301         1.127124        -1.205263
 H         1.671609         1.655276        -0.334525
 H         2.197241         0.533556         2.224376
 H         0.847841         1.508993         2.647196
