19
Iteration:  4269
 O         0.327130         0.094826         4.527890
 C         0.254512        -0.457716         3.277456
 C         0.347842        -1.900570         3.001063
 C        -0.834952        -0.962613         2.521983
 C        -0.891515        -0.540621         1.100798
 C         0.415390         0.398124         0.883990
 C         0.620812         1.137815        -0.321516
 O         1.260028        -0.135060        -0.280552
 C         1.064008         0.426119         2.345844
 H        -0.386397        -0.326375         5.000198
 H         0.855286        -2.417185         2.198424
 H         0.193103        -2.815416         3.681886
 H        -1.794213        -1.047231         3.038785
 H        -0.876849        -1.428662         0.329213
 H        -1.802252         0.082459         1.079525
 H        -0.201559         1.173474        -1.103432
 H         1.165769         2.045212        -0.449237
 H         2.147803         0.172506         2.285391
 H         1.106132         1.437400         2.983959
