19
Iteration:  3043charge 0 multiplicity 1
 O         0.220439        -0.062160         4.538204
 C         0.340635        -0.354299         3.179467
 C         0.259530        -1.792541         2.796771
 C        -0.912428        -0.893774         2.505208
 C        -0.998581        -0.279110         1.093920
 C         0.434847         0.305237         0.904319
 C         0.872961         1.085263        -0.227455
 O         1.196438        -0.401532        -0.078935
 C         1.117305         0.520689         2.278880
 H        -0.041414        -0.899568         4.900944
 H         0.957804        -2.104759         2.010805
 H         0.286269        -2.571513         3.613032
 H        -1.823694        -0.968045         3.126837
 H        -1.339990        -0.924768         0.296917
 H        -1.637289         0.601379         1.144192
 H         0.114730         1.097831        -1.041834
 H         1.711829         1.804121        -0.028807
 H         2.164682         0.173243         2.383858
 H         1.070349         1.540057         2.593420
