19
Iteration:   698
 O         0.352721         0.045113         4.531218
 C         0.298716        -0.470535         3.138334
 C         0.065424        -1.964523         2.885760
 C        -0.955427        -0.906336         2.540824
 C        -1.056919        -0.258902         1.143178
 C         0.474132         0.286699         0.825825
 C         0.998137         1.108812        -0.311383
 O         1.304250        -0.333776        -0.079478
 C         1.019533         0.519488         2.282625
 H         0.211209        -0.747821         5.027789
 H         0.748746        -2.439180         2.168395
 H        -0.190841        -2.596931         3.677997
 H        -1.702480        -0.824784         3.277884
 H        -1.560438        -0.858755         0.364819
 H        -1.633526         0.743436         1.286336
 H         0.279347         1.202908        -1.110570
 H         1.827032         1.899540        -0.240205
 H         2.095779         0.323146         2.106559
 H         0.802718         1.566031         2.869045
