19
Iteration:   314charge 0 multiplicity 1
 O         0.103103         0.069469         4.528800
 C         0.307977        -0.499241         3.237392
 C         0.284806        -1.936932         2.908474
 C        -0.926805        -0.948311         2.480277
 C        -0.947959        -0.135896         1.150548
 C         0.472893         0.290645         0.971410
 C         0.833591         1.088294        -0.303594
 O         1.215148        -0.321036        -0.140967
 C         1.180623         0.363631         2.252602
 H         0.854179         0.703292         4.639473
 H         0.936495        -2.283043         2.169723
 H        -0.156746        -2.674920         3.577175
 H        -1.829459        -1.383094         2.950584
 H        -1.271121        -0.676265         0.325246
 H        -1.675267         0.685515         1.143524
 H        -0.037127         1.224912        -1.075380
 H         1.725356         1.686354        -0.334280
 H         2.213220         0.029752         2.160070
 H         1.186609         1.468645         2.599090
