19
Iteration:  4853charge 0 multiplicity 1
 O         0.315019        -0.113697         4.546164
 C         0.375770        -0.368622         3.188999
 C         0.552172        -1.794033         2.842462
 C        -0.779150        -1.044761         2.501060
 C        -0.989189        -0.572181         1.098885
 C         0.265012         0.234877         0.915454
 C         0.646991         1.091643        -0.286721
 O         1.302882        -0.192183        -0.039214
 C         0.795787         0.736646         2.241833
 H         0.605244         0.760577         4.888228
 H         1.336432        -2.120595         2.103808
 H         0.366784        -2.472276         3.677275
 H        -1.607456        -1.591832         2.920556
 H        -1.141990        -1.347141         0.446138
 H        -1.884911         0.069212         1.157347
 H         0.179998         1.050007        -1.282355
 H         1.165505         1.979999        -0.043112
 H         1.914736         0.868826         2.254609
 H         0.279838         1.715105         2.467232
