19
Iteration:  2644
 O         0.251611        -0.071510         4.640892
 C         0.379745        -0.435892         3.293551
 C        -0.009288        -1.819975         2.938820
 C        -0.995616        -0.806214         2.503411
 C        -0.862229        -0.470078         1.005142
 C         0.548481         0.274801         0.939156
 C         0.777927         1.097583        -0.293386
 O         1.263891        -0.208446        -0.318530
 C         1.151731         0.518856         2.322291
 H         0.895654        -0.552704         5.220161
 H         0.605916        -2.362995         2.223679
 H        -0.364534        -2.595288         3.701638
 H        -1.902011        -0.575477         3.062714
 H        -0.800725        -1.419897         0.461096
 H        -1.550558         0.136588         0.511271
 H        -0.117676         1.315941        -0.878883
 H         1.443567         2.007690        -0.363561
 H         2.155413         0.173712         2.351972
 H         1.004592         1.472989         2.762888
