19
Iteration:  1413charge 0 multiplicity 1
 O         0.445178        -0.120750         4.620762
 C         0.194177        -0.370713         3.254624
 C         0.097718        -1.776749         2.864218
 C        -1.070259        -0.887099         2.488397
 C        -0.943970        -0.282593         1.080790
 C         0.454502         0.336299         0.908822
 C         0.847400         0.985021        -0.348121
 O         1.423447        -0.267938        -0.114301
 C         0.991532         0.519595         2.290761
 H         0.535774        -0.943235         5.076864
 H         0.598689        -2.351830         2.078667
 H        -0.321476        -2.533995         3.574491
 H        -2.063237        -1.072521         2.941633
 H        -1.211350        -0.773306         0.212371
 H        -1.614336         0.624997         1.046881
 H         0.191512         0.923076        -1.239964
 H         1.598676         1.682311        -0.426426
 H         2.005143         0.180272         2.244127
 H         1.045591         1.628397         2.641747
