19
Iteration:   155charge 0 multiplicity 1
 O         0.140854        -0.107749         4.613117
 C         0.313300        -0.415809         3.207877
 C         0.288269        -1.832045         2.820663
 C        -0.879633        -0.885286         2.502035
 C        -1.012724        -0.149220         1.184663
 C         0.397220         0.415384         0.887752
 C         1.007977         0.975674        -0.379353
 O         1.144237        -0.447403        -0.155956
 C         1.095304         0.540872         2.325887
 H         1.008549         0.142924         5.001278
 H         0.894061        -2.344976         2.036807
 H        -0.058964        -2.595445         3.608733
 H        -1.819612        -1.105899         3.038711
 H        -1.217179        -0.813804         0.337511
 H        -1.828129         0.504483         1.213808
 H         0.372628         1.299740        -1.127849
 H         2.005788         1.426994        -0.188855
 H         2.188610         0.472191         2.306539
 H         0.872080         1.521154         2.586708
