19
Iteration:  1995charge 0 multiplicity 1
 O         0.175826         0.085060         4.631243
 C         0.288136        -0.423139         3.281020
 C         0.079516        -1.937492         2.952853
 C        -0.974306        -0.869006         2.509771
 C        -0.847464        -0.374533         1.057057
 C         0.550008         0.286969         0.880140
 C         0.839537         1.184078        -0.237859
 O         1.173774        -0.213848        -0.349446
 C         1.234347         0.311764         2.289625
 H         0.683069        -0.571202         5.133711
 H         0.901046        -2.238307         2.241739
 H        -0.177618        -2.660054         3.774485
 H        -2.012274        -0.850422         2.903380
 H        -0.988495        -1.243531         0.364355
 H        -1.792465         0.232770         0.822921
 H         0.133810         1.590280        -0.966741
 H         1.580977         1.921792         0.006141
 H         2.208628        -0.112298         2.375336
 H         1.333133         1.282134         2.760067
