19
Iteration:  2827
 O         0.403076         0.013526         4.544181
 C         0.270452        -0.400918         3.241963
 C         0.005912        -1.876179         2.968492
 C        -1.010474        -0.919371         2.440115
 C        -0.906923        -0.476061         0.989375
 C         0.508906         0.221650         0.891997
 C         0.720812         1.197230        -0.121752
 O         1.357781        -0.214657        -0.203674
 C         1.111328         0.429829         2.307408
 H         1.306213         0.445514         4.586827
 H         0.576140        -2.544262         2.313630
 H        -0.498988        -2.358067         3.779639
 H        -2.026234        -0.946460         2.739299
 H        -0.817941        -1.342170         0.236654
 H        -1.815619         0.206879         0.806030
 H        -0.158080         1.279101        -0.660311
 H         1.335195         2.065061        -0.145071
 H         2.216183         0.274940         2.220077
 H         0.822604         1.448278         2.785538
