19
Iteration:   119
 O         0.070120        -0.137408         4.666897
 C         0.275177        -0.273868         3.277519
 C         0.397204        -1.693230         2.746144
 C        -0.865747        -0.875483         2.440912
 C        -1.004062        -0.111707         1.225040
 C         0.467034         0.278322         0.880642
 C         0.955395         0.948549        -0.331061
 O         1.095606        -0.522604        -0.215936
 C         1.140268         0.519872         2.326934
 H         0.733446        -0.691655         5.121056
 H         1.112683        -1.923274         1.949587
 H         0.123037        -2.480877         3.373198
 H        -1.730982        -1.334570         2.945571
 H        -1.400309        -0.743898         0.327836
 H        -1.606821         0.830244         1.407504
 H         0.271899         1.387129        -1.184460
 H         1.802957         1.514102        -0.148224
 H         2.178111         0.335597         2.421825
 H         0.974939         1.576410         2.500055
