19
Iteration:  1113charge 0 multiplicity 1
 O         0.289154        -0.140470         4.439349
 C         0.363152        -0.408914         3.068404
 C         0.190475        -1.854158         2.658766
 C        -0.949589        -0.862375         2.501750
 C        -1.051793        -0.118941         1.192731
 C         0.340337         0.383241         0.998330
 C         0.924963         0.912243        -0.330578
 O         1.339396        -0.457557         0.191530
 C         0.990936         0.680817         2.260705
 H         0.928609        -0.736941         4.825071
 H         0.508532        -2.142321         1.716032
 H         0.140400        -2.654253         3.408197
 H        -1.704845        -0.918036         3.232764
 H        -1.416842        -0.627005         0.261636
 H        -1.739403         0.706422         1.397649
 H         0.316095         0.940175        -1.236305
 H         1.835777         1.430575        -0.309699
 H         2.033661         0.549565         2.338551
 H         0.845119         1.658561         2.798264
