19
Iteration:  1144charge 0 multiplicity 1
 O         0.182754        -0.151382         4.650881
 C         0.326211        -0.367443         3.234564
 C         0.326938        -1.806093         2.673119
 C        -0.846681        -0.856075         2.394024
 C        -1.031549        -0.044043         1.163593
 C         0.489225         0.394028         0.973543
 C         0.905889         0.854604        -0.391431
 O         1.152390        -0.488112        -0.018779
 C         1.005339         0.605278         2.338160
 H         0.801375        -0.717476         5.201207
 H         0.990563        -1.962448         1.924050
 H        -0.010099        -2.660857         3.135236
 H        -1.736182        -1.190464         2.899803
 H        -1.205568        -0.517828         0.135993
 H        -1.657489         0.787267         1.421405
 H         0.270698         1.136147        -1.252224
 H         1.840697         1.311195        -0.465904
 H         2.141980         0.490596         2.334637
 H         0.596577         1.612750         2.655983
