19
Iteration:  4459
 O         0.383250        -0.067270         4.510906
 C         0.359355        -0.400316         3.152365
 C         0.377928        -1.778678         2.717808
 C        -0.895621        -1.060763         2.522002
 C        -1.026912        -0.361495         1.153258
 C         0.262228         0.343295         0.916199
 C         0.845614         0.949926        -0.300476
 O         1.298552        -0.341781         0.097276
 C         0.841249         0.780456         2.228025
 H         0.854713        -0.797056         4.989205
 H         0.835873        -2.082158         1.787845
 H         0.592423        -2.619300         3.448523
 H        -1.817398        -1.124524         3.068093
 H        -1.440308        -0.943400         0.375037
 H        -1.731014         0.534933         1.335170
 H         0.266792         0.866849        -1.148568
 H         1.557172         1.807466        -0.306832
 H         1.969471         0.928067         2.140687
 H         0.346045         1.728225         2.637692
