19
Iteration:  3366
 O         0.331794        -0.305561         4.600658
 C         0.366594        -0.327877         3.162783
 C         0.179730        -1.765143         2.667899
 C        -0.950815        -0.786106         2.492077
 C        -0.996324        -0.184130         1.132873
 C         0.391675         0.299402         0.901974
 C         0.952282         0.911140        -0.283163
 O         1.258110        -0.454850         0.078826
 C         0.918708         0.722898         2.235804
 H         1.153547        -0.086823         5.111398
 H         0.688251        -2.281937         1.852542
 H         0.133926        -2.383626         3.494218
 H        -1.909047        -0.922148         3.119654
 H        -1.355290        -0.715440         0.204862
 H        -1.612637         0.634615         1.376070
 H         0.350626         0.812568        -1.274983
 H         1.822516         1.559818        -0.265048
 H         2.004462         0.797848         2.111060
 H         0.448239         1.721782         2.405861
