19
Iteration:  4343charge 0 multiplicity 1
 O         0.303696         0.008617         4.654813
 C         0.328280        -0.396795         3.268145
 C         0.267796        -1.953036         2.820570
 C        -0.847430        -1.070369         2.563476
 C        -0.890372        -0.438241         1.140698
 C         0.296511         0.387421         0.830182
 C         0.768824         1.074382        -0.325789
 O         1.271971        -0.246298        -0.137096
 C         0.909117         0.648195         2.245887
 H         1.194197         0.400308         4.583179
 H         0.889532        -2.305255         2.027729
 H         0.243219        -2.813075         3.563581
 H        -1.752635        -1.246917         3.129030
 H        -0.986675        -1.206789         0.267468
 H        -1.723940         0.209861         0.934222
 H        -0.014284         1.347811        -1.133134
 H         1.628794         1.794635        -0.147295
 H         1.931523         0.386201         2.102310
 H         0.887919         1.644010         2.600817
