19
Iteration:  2696
 O         0.280290         0.207579         4.436410
 C         0.316338        -0.436500         3.163712
 C         0.156084        -1.933543         3.072897
 C        -0.928213        -0.948676         2.463423
 C        -1.050557        -0.376232         1.047958
 C         0.381547         0.258335         0.921440
 C         0.809302         1.226407        -0.095085
 O         1.345514        -0.157432        -0.198190
 C         1.228928         0.172031         2.155765
 H        -0.104505        -0.478835         5.059710
 H         0.766069        -2.599820         2.516529
 H        -0.116838        -2.388849         4.048565
 H        -2.026149        -0.981546         2.915246
 H        -1.236970        -1.194975         0.320631
 H        -1.911888         0.314974         0.958651
 H         0.215389         1.628436        -0.961857
 H         1.383493         2.031651         0.585115
 H         2.153236        -0.419386         2.056729
 H         1.418308         1.182850         2.637557
