19
Iteration:  2474
 O         0.400497        -0.074980         4.566229
 C         0.294183        -0.450694         3.179740
 C         0.138756        -1.929924         2.724528
 C        -1.020866        -0.930255         2.439704
 C        -0.972298        -0.141035         1.127018
 C         0.405514         0.381617         0.917326
 C         0.900501         0.979400        -0.384074
 O         1.324157        -0.334475         0.125865
 C         0.933147         0.620299         2.299959
 H         1.165571        -0.527645         5.027942
 H         0.837184        -2.240100         1.903323
 H        -0.025967        -2.677501         3.571234
 H        -1.947699        -1.103476         2.948113
 H        -1.253379        -0.885583         0.391520
 H        -1.671218         0.618890         1.102589
 H         0.296333         0.837666        -1.362214
 H         1.843715         1.496161        -0.370649
 H         2.031124         0.517740         2.252207
 H         0.489627         1.590378         2.543476
