19
Iteration:   117charge 0 multiplicity 1
 O         0.076658        -0.123955         4.655134
 C         0.269081        -0.293023         3.261137
 C         0.391595        -1.693550         2.735682
 C        -0.858420        -0.880013         2.454757
 C        -1.010797        -0.114847         1.219896
 C         0.469076         0.285033         0.915592
 C         0.957622         0.942916        -0.333374
 O         1.105875        -0.523056        -0.217324
 C         1.132578         0.521144         2.320242
 H         0.682570        -0.697288         5.105486
 H         1.036873        -1.953581         1.923249
 H         0.149357        -2.523858         3.348669
 H        -1.718561        -1.286135         2.942673
 H        -1.403117        -0.765214         0.351655
 H        -1.624035         0.881864         1.467031
 H         0.186759         1.315949        -1.194569
 H         1.853740         1.581318        -0.153565
 H         2.201344         0.346735         2.470209
 H         1.000447         1.658534         2.568876
