19
Iteration:  3797charge 0 multiplicity 1
 O         0.294059        -0.127262         4.628933
 C         0.347189        -0.303516         3.199085
 C         0.315154        -1.810572         2.818966
 C        -0.876985        -0.929014         2.591745
 C        -1.023384        -0.330267         1.178405
 C         0.395036         0.274785         0.868972
 C         0.763512         1.005682        -0.338547
 O         1.334522        -0.299380        -0.167074
 C         1.006124         0.571433         2.243580
 H        -0.639097        -0.222300         4.985166
 H         0.822365        -2.151961         1.922249
 H         0.525612        -2.475924         3.591985
 H        -1.743425        -1.189897         3.179762
 H        -1.213871        -0.908883         0.329863
 H        -1.733573         0.487768         1.251296
 H         0.063008         1.156664        -1.268680
 H         1.398524         1.887734        -0.268693
 H         2.057651         0.393923         2.231602
 H         0.801367         1.528485         2.633192
