19
Iteration:  3103charge 0 multiplicity 1
 O         0.292118         0.064379         4.442328
 C         0.355766        -0.507322         3.164380
 C         0.171911        -1.913183         3.032095
 C        -0.987173        -0.959806         2.502541
 C        -1.000546        -0.308753         1.109049
 C         0.445060         0.273167         0.912519
 C         0.829275         1.133324        -0.204650
 O         1.308618        -0.186918        -0.164994
 C         1.137024         0.400850         2.205404
 H        -0.195859        -0.594371         4.948298
 H         0.928432        -2.528138         2.518679
 H        -0.245003        -2.325002         3.908211
 H        -1.860429        -1.119351         3.063315
 H        -1.330704        -0.978851         0.203478
 H        -1.604733         0.689944         1.087650
 H         0.056123         1.416752        -0.901830
 H         1.471737         1.954402        -0.173239
 H         2.180263         0.044399         2.222080
 H         1.086742         1.411503         2.743861
