19
Iteration:  4924
 O         0.270601        -0.014133         4.591433
 C         0.347574        -0.371348         3.236448
 C         0.554673        -1.754842         2.935210
 C        -0.772609        -1.241880         2.462009
 C        -0.892662        -0.519922         1.126166
 C         0.333467         0.287550         0.930377
 C         0.494604         1.082353        -0.347606
 O         1.260314        -0.145663        -0.115622
 C         1.001236         0.663759         2.243182
 H        -0.691449         0.208010         4.670609
 H         1.276058        -1.994303         2.191372
 H         0.616884        -2.482476         3.756540
 H        -1.707010        -1.706227         2.759472
 H        -0.878744        -1.369049         0.315845
 H        -1.800705         0.078784         0.992819
 H        -0.382457         1.191288        -1.074107
 H         1.024018         2.082175        -0.363777
 H         2.079480         0.626448         2.166543
 H         0.688838         1.601627         2.669934
