19
Iteration:  3865charge 0 multiplicity 1
 O         0.243168         0.013484         4.583714
 C         0.290671        -0.386337         3.204092
 C         0.168153        -1.885458         2.987158
 C        -0.883340        -0.982977         2.633814
 C        -0.946293        -0.555480         1.072208
 C         0.409581         0.194934         0.803580
 C         0.723613         1.201276        -0.205804
 O         1.335778        -0.111439        -0.272005
 C         1.117540         0.446853         2.215856
 H         1.082030         0.431116         4.718262
 H         0.731740        -2.328447         2.161102
 H         0.215898        -2.637251         3.854336
 H        -1.817788        -0.970435         3.284930
 H        -1.258511        -1.366315         0.488604
 H        -1.645539         0.249260         1.052068
 H         0.080251         1.355104        -1.107369
 H         1.226832         2.182598         0.053806
 H         2.182409         0.226677         2.274170
 H         0.885841         1.457189         2.419304
