19
Iteration:  1063charge 0 multiplicity 1
 O         0.443416        -0.277277         4.629465
 C         0.212834        -0.321810         3.254221
 C         0.115912        -1.767594         2.729684
 C        -1.058480        -0.783379         2.456361
 C        -0.952074        -0.228419         1.062207
 C         0.471422         0.297396         1.009420
 C         0.979256         0.927793        -0.310158
 O         1.268079        -0.448230        -0.106666
 C         0.927333         0.663341         2.300609
 H         1.386799        -0.090133         4.791191
 H         0.878461        -2.150405         1.943476
 H        -0.014560        -2.486789         3.673123
 H        -2.024490        -0.876382         2.925755
 H        -1.172249        -0.927223         0.290623
 H        -1.739520         0.584675         0.928366
 H         0.207298         1.140784        -1.065817
 H         1.684370         1.828576        -0.155846
 H         2.018270         0.875060         2.557640
 H         0.544030         1.671764         2.445199
