19
Iteration:   266charge 0 multiplicity 1
 O         0.185149         0.005376         4.548431
 C         0.348857        -0.451935         3.207147
 C         0.168135        -1.857738         2.819706
 C        -0.935063        -0.863621         2.518862
 C        -0.961771        -0.265318         1.117911
 C         0.469784         0.271209         0.890317
 C         0.872888         1.081726        -0.268487
 O         1.251093        -0.402763        -0.126588
 C         1.087455         0.527145         2.282733
 H         0.949354        -0.320268         5.026343
 H         0.874281        -2.178344         1.997684
 H         0.109687        -2.502186         3.701169
 H        -1.783977        -0.806343         3.186625
 H        -1.209223        -1.030826         0.342787
 H        -1.809161         0.412609         1.050186
 H         0.062757         1.185855        -1.027874
 H         1.686806         1.876839        -0.140682
 H         2.165778         0.346028         2.407336
 H         0.872039         1.499503         2.608041
