19
Iteration:  4649charge 0 multiplicity 1
 O         0.311347        -0.120111         4.576259
 C         0.340535        -0.346446         3.198727
 C         0.364000        -1.777907         2.878999
 C        -0.848125        -1.007105         2.503224
 C        -0.857781        -0.543994         1.130240
 C         0.398435         0.261676         0.911995
 C         0.572259         1.087130        -0.330947
 O         1.288707        -0.183156        -0.128867
 C         0.975978         0.595439         2.253483
 H         0.236869         0.794654         4.890544
 H         1.123590        -2.197205         2.238656
 H         0.192689        -2.441216         3.764214
 H        -1.724453        -1.359749         3.014233
 H        -0.892851        -1.285126         0.288176
 H        -1.765085         0.071794         1.016265
 H        -0.327296         1.241142        -0.980551
 H         1.133128         1.970977        -0.113026
 H         2.065743         0.631570         2.336392
 H         0.526747         1.619644         2.558879
