19
Iteration:  3946
 O         0.313089         0.122158         4.593571
 C         0.371127        -0.470906         3.251188
 C         0.268211        -1.906106         2.942966
 C        -0.876131        -0.982846         2.505666
 C        -0.941768        -0.491712         1.099937
 C         0.388955         0.213051         0.846413
 C         0.678028         1.179409        -0.289674
 O         1.288591        -0.121446        -0.222068
 C         1.081664         0.430062         2.257905
 H        -0.477756        -0.283846         4.995373
 H         0.840139        -2.314804         2.011318
 H         0.132638        -2.621314         3.761529
 H        -1.718344        -0.991743         3.139428
 H        -1.461141        -1.198098         0.481911
 H        -1.659316         0.312600         1.195717
 H        -0.025333         1.350920        -1.119129
 H         1.459416         1.889184        -0.205712
 H         2.155142         0.169521         2.392683
 H         1.002504         1.457961         2.746890
