19
Iteration:  4297
 O         0.296932         0.024748         4.609297
 C         0.350359        -0.379489         3.268176
 C         0.280143        -1.861318         2.925692
 C        -0.905530        -0.946141         2.499817
 C        -0.873919        -0.521991         1.112125
 C         0.434069         0.243758         0.846656
 C         0.519894         1.115205        -0.203195
 O         1.352110        -0.170462        -0.194927
 C         1.099055         0.567779         2.154212
 H         0.247557        -0.797954         5.079780
 H         0.658647        -2.530579         2.074970
 H         0.078169        -2.387870         3.835996
 H        -1.857418        -1.075447         2.997269
 H        -0.998979        -1.273426         0.345397
 H        -1.777158         0.078472         0.942097
 H        -0.128897         0.964248        -1.037719
 H         1.038111         2.114457         0.085730
 H         2.178340         0.519097         2.092734
 H         0.844399         1.542184         2.433424
