19
Iteration:  1973charge 0 multiplicity 1
 O         0.356159         0.065631         4.549237
 C         0.319864        -0.462064         3.234318
 C         0.046758        -1.918816         2.975515
 C        -0.982104        -0.896139         2.448778
 C        -0.950760        -0.410179         0.997250
 C         0.439200         0.281672         0.921392
 C         0.877051         1.172085        -0.190021
 O         1.300515        -0.175946        -0.156864
 C         1.068210         0.365242         2.227335
 H         0.766896        -0.607459         5.133723
 H         0.807832        -2.619783         2.490828
 H        -0.530390        -2.323301         3.847885
 H        -1.955397        -0.707319         2.968332
 H        -1.144010        -1.145342         0.195771
 H        -1.852113         0.247259         0.796945
 H         0.168692         1.490509        -0.977611
 H         1.693554         1.884104        -0.081352
 H         2.078619        -0.005343         2.189274
 H         1.150993         1.402752         2.502948
