19
Iteration:  4001charge 0 multiplicity 1
 O         0.375946        -0.120721         4.720448
 C         0.308552        -0.404312         3.235577
 C         0.328461        -1.867367         2.786213
 C        -0.915953        -1.038614         2.502887
 C        -0.930004        -0.387866         1.080627
 C         0.403593         0.384747         0.871748
 C         0.732629         1.062610        -0.347303
 O         1.196859        -0.302304        -0.044987
 C         1.018035         0.676370         2.225156
 H         0.061388         0.848768         4.751881
 H         0.981158        -2.122364         1.853859
 H         0.180798        -2.610365         3.560251
 H        -1.824577        -1.400374         3.031760
 H        -0.868569        -1.134432         0.326765
 H        -1.752109         0.271138         0.973332
 H         0.021065         1.074231        -1.204239
 H         1.561617         1.713262        -0.398300
 H         2.126636         0.751345         2.335318
 H         0.514084         1.688082         2.436717
