19
Iteration:  2087charge 0 multiplicity 1
 O         0.353326        -0.022870         4.580682
 C         0.293246        -0.412079         3.230472
 C         0.127920        -1.896421         2.889418
 C        -0.955051        -0.838053         2.468425
 C        -0.980971        -0.369485         1.018599
 C         0.425643         0.264417         0.871092
 C         0.907753         1.103216        -0.163043
 O         1.292289        -0.289610        -0.127134
 C         1.002942         0.502905         2.221356
 H         0.966395        -0.555276         5.148132
 H         0.630647        -2.365700         2.055832
 H        -0.167002        -2.465253         3.748677
 H        -1.933305        -1.059737         2.992573
 H        -1.220431        -1.144370         0.241245
 H        -1.757714         0.395699         0.974674
 H         0.161730         1.550808        -0.925315
 H         1.653060         1.961853        -0.013101
 H         2.123459         0.311808         2.344512
 H         0.864481         1.541590         2.460884
