19
Iteration:  2972
 O         0.394269        -0.296743         4.566042
 C         0.238495        -0.313679         3.171193
 C         0.208229        -1.723457         2.581458
 C        -0.967021        -0.838333         2.475427
 C        -1.073421        -0.245415         1.094803
 C         0.354864         0.352096         0.930962
 C         0.879131         0.893865        -0.299393
 O         1.376470        -0.518290         0.147813
 C         0.955479         0.829462         2.317890
 H         1.336748        -0.336869         4.722727
 H         0.820947        -2.044786         1.724236
 H         0.263870        -2.455683         3.420177
 H        -1.894429        -0.926437         3.141311
 H        -1.228909        -1.053788         0.310273
 H        -1.738690         0.650564         1.078037
 H         0.085542         1.001608        -1.025271
 H         1.689726         1.616996        -0.129841
 H         2.033394         0.684259         2.101761
 H         0.656750         1.862648         2.698353
