19
Iteration:  2192charge 0 multiplicity 1
 O         0.189996        -0.169499         4.562147
 C         0.298763        -0.367740         3.136686
 C         0.394792        -1.833873         2.588441
 C        -0.897633        -0.883542         2.509214
 C        -1.078523        -0.184312         1.200854
 C         0.362097         0.367137         0.933965
 C         1.128893         0.900159        -0.290946
 O         1.055940        -0.454455         0.045326
 C         1.020120         0.722540         2.279012
 H         1.088544        -0.052260         5.001166
 H         0.937270        -2.008999         1.666168
 H         0.613444        -2.642583         3.250995
 H        -1.783744        -1.169759         3.112459
 H        -1.602044        -0.805702         0.417091
 H        -1.654673         0.814554         1.416819
 H         0.528672         1.085707        -1.163287
 H         2.111757         1.165004        -0.103535
 H         2.145644         0.682397         2.325641
 H         0.430535         1.687490         2.795355
