19
Iteration:  4790
 O         0.251462        -0.078685         4.562141
 C         0.389911        -0.322006         3.207626
 C         0.642673        -1.799471         2.752245
 C        -0.810081        -1.060687         2.497483
 C        -1.034251        -0.448359         1.051212
 C         0.339286         0.303666         0.935781
 C         0.627876         0.925738        -0.301895
 O         1.303112        -0.264720         0.059164
 C         0.804587         0.822337         2.285416
 H         0.732040        -0.876222         4.937509
 H         1.211939        -2.011725         1.798921
 H         0.790585        -2.540871         3.545832
 H        -1.773912        -1.347982         2.960520
 H        -1.297915        -0.914849         0.082433
 H        -1.849163         0.311470         1.240795
 H        -0.098454         0.693172        -1.081887
 H         1.221634         1.806005        -0.519050
 H         1.839804         1.074924         2.018270
 H         0.339265         1.673372         2.674213
