19
Iteration:  4395
 O         0.183066        -0.163985         4.658534
 C         0.284812        -0.291741         3.190171
 C         0.504734        -1.841995         2.666612
 C        -0.778513        -0.994759         2.456882
 C        -1.014117        -0.283897         1.232453
 C         0.354376         0.333532         0.896339
 C         0.767144         0.914414        -0.357371
 O         1.187432        -0.361876        -0.038928
 C         1.039273         0.715079         2.303739
 H         0.600647         0.709732         4.697612
 H         1.063223        -1.973322         1.738094
 H         0.485169        -2.708200         3.460955
 H        -1.628482        -1.455627         2.913703
 H        -1.455764        -0.772479         0.403031
 H        -1.725147         0.543300         1.440149
 H         0.025294         0.724698        -1.131309
 H         1.542092         1.729271        -0.451349
 H         2.167897         0.708679         2.457847
 H         0.606915         1.715322         2.621036
