19
Iteration:   395
 O         0.540518         0.043133         4.523257
 C         0.218660        -0.434968         3.142902
 C         0.052406        -1.873705         2.831352
 C        -1.040375        -0.889292         2.431284
 C        -0.995214        -0.283559         1.053638
 C         0.423075         0.294606         0.959693
 C         0.779784         0.962304        -0.308861
 O         1.411914        -0.252895         0.047031
 C         1.064144         0.491819         2.315791
 H         0.221736        -0.738779         5.078133
 H         0.825091        -2.369382         2.122674
 H        -0.075010        -2.554503         3.691966
 H        -2.040349        -0.902945         2.894791
 H        -1.113383        -1.149570         0.362496
 H        -1.769828         0.472570         1.010044
 H         0.027127         0.947564        -1.025852
 H         1.269738         1.956049        -0.492268
 H         2.208340         0.358501         2.348835
 H         0.698891         1.561640         2.501179
