19
Iteration:  4396charge 0 multiplicity 1
 O         0.182749        -0.164173         4.662804
 C         0.283689        -0.298324         3.208060
 C         0.506735        -1.839404         2.655388
 C        -0.775804        -0.997608         2.455618
 C        -1.018981        -0.278216         1.231825
 C         0.350788         0.334766         0.893104
 C         0.771105         0.912641        -0.371125
 O         1.186737        -0.361072        -0.034868
 C         1.047916         0.718131         2.309051
 H         0.607964         0.720794         4.689351
 H         1.042180        -1.948450         1.732378
 H         0.448119        -2.681812         3.472736
 H        -1.609617        -1.478147         2.927712
 H        -1.470533        -0.821011         0.383870
 H        -1.721451         0.534026         1.428124
 H        -0.009333         0.732281        -1.181784
 H         1.562806         1.723161        -0.466756
 H         2.148660         0.731107         2.489525
 H         0.606881         1.683521         2.624644
