19
Iteration:  3524
 O         0.313844        -0.018084         4.551952
 C         0.317987        -0.438166         3.232344
 C         0.013736        -1.859645         3.053016
 C        -1.051631        -0.867131         2.512174
 C        -0.954401        -0.487881         1.123819
 C         0.499706         0.132724         0.871363
 C         0.722313         1.118848        -0.203063
 O         1.457258        -0.044147        -0.309070
 C         1.161563         0.328611         2.233166
 H         0.731175         0.892143         4.662666
 H         0.720298        -2.287167         2.277880
 H        -0.418349        -2.471280         3.794846
 H        -1.979757        -0.771564         3.175390
 H        -1.228464        -1.304928         0.488273
 H        -1.677365         0.387328         0.924387
 H        -0.025000         1.074312        -1.007253
 H         1.195773         2.098513        -0.156230
 H         2.289245         0.217061         2.253720
 H         1.058965         1.454540         2.544441
