19
Iteration:  2017charge 0 multiplicity 1
 O        -0.006951         0.009605         4.532598
 C         0.371458        -0.366458         3.255863
 C         0.142745        -1.839124         2.945336
 C        -0.911853        -0.840786         2.563908
 C        -0.845906        -0.341252         1.120197
 C         0.584936         0.165973         0.895482
 C         0.794501         1.167880        -0.172171
 O         1.179611        -0.196709        -0.340742
 C         1.292251         0.262007         2.262877
 H         0.748758        -0.247789         5.118185
 H         0.511342        -2.292982         2.004933
 H        -0.131075        -2.489445         3.817664
 H        -1.862952        -1.013327         3.060594
 H        -1.187403        -1.104802         0.353282
 H        -1.592093         0.571466         1.037023
 H        -0.116942         1.487834        -0.673765
 H         1.514304         1.918479        -0.359995
 H         2.269549        -0.175349         2.206363
 H         1.446330         1.270043         2.623812
