19
Iteration:  4431
 O         0.279358        -0.200196         4.604150
 C         0.261036        -0.403810         3.218670
 C         0.529516        -1.767536         2.709456
 C        -0.792195        -0.947689         2.463379
 C        -1.007809        -0.232010         1.092354
 C         0.298134         0.415498         0.946226
 C         0.773493         0.858890        -0.345364
 O         1.200190        -0.417817         0.054114
 C         0.940849         0.748307         2.278102
 H         1.063634         0.308115         4.891861
 H         1.072677        -2.056052         1.772490
 H         0.474821        -2.508296         3.478688
 H        -1.727629        -1.252059         2.955303
 H        -1.252243        -1.014219         0.293770
 H        -1.755239         0.516817         1.203413
 H        -0.030427         0.984252        -1.209293
 H         1.520467         1.671671        -0.482861
 H         1.992105         0.925167         2.374682
 H         0.435928         1.666689         2.567892
