19
Iteration:  4153charge 0 multiplicity 1
 O         0.377556        -0.019678         4.590253
 C         0.341509        -0.394148         3.208470
 C         0.298476        -1.876845         2.777755
 C        -0.854612        -1.013873         2.517660
 C        -0.979568        -0.448977         1.147076
 C         0.394251         0.351571         0.893109
 C         0.615217         1.014564        -0.367139
 O         1.330356        -0.236297        -0.062014
 C         1.019356         0.673882         2.341457
 H        -0.501942        -0.404081         4.867037
 H         0.960273        -2.212464         1.951167
 H         0.335360        -2.630913         3.677610
 H        -1.839673        -1.098352         3.113620
 H        -1.124452        -1.115812         0.334678
 H        -1.807070         0.326719         1.015859
 H        -0.056948         0.881624        -1.268589
 H         1.247524         1.899994        -0.443260
 H         2.081732         0.549484         2.175904
 H         0.880996         1.654162         2.632155
