19
Iteration:  1887
 O         0.146817        -0.209454         4.551899
 C         0.249574        -0.305797         3.207742
 C         0.322057        -1.828541         2.729253
 C        -0.864867        -0.917955         2.486240
 C        -1.028107        -0.143453         1.149721
 C         0.428041         0.453826         0.944369
 C         0.898517         0.935755        -0.349816
 O         1.194821        -0.468319        -0.047885
 C         1.120290         0.653989         2.351444
 H         0.982377        -0.411374         4.974802
 H         0.952918        -2.148525         1.819013
 H         0.296950        -2.610723         3.512918
 H        -1.870974        -1.146342         3.007315
 H        -1.271845        -0.730075         0.224606
 H        -1.785007         0.566651         1.339972
 H         0.122503         0.909021        -1.235469
 H         1.872760         1.463526        -0.265830
 H         2.300323         0.496596         2.494015
 H         0.923679         1.702592         2.562627
