19
Iteration:   832charge 0 multiplicity 1
 O         0.206951         0.007042         4.584794
 C         0.333395        -0.410178         3.279415
 C         0.378833        -1.797521         2.646269
 C        -0.944689        -0.964877         2.380091
 C        -1.013810        -0.148068         1.118624
 C         0.400811         0.383338         0.916696
 C         0.943539         0.962559        -0.292590
 O         1.085789        -0.477708         0.003517
 C         1.097365         0.525427         2.367762
 H         0.601588        -0.506970         5.267583
 H         1.234886        -1.949329         1.940927
 H         0.212190        -2.738511         3.169009
 H        -1.899066        -1.113724         3.023180
 H        -1.314040        -0.700239         0.254974
 H        -1.855484         0.642218         1.283402
 H         0.329586         1.306401        -1.129030
 H         1.873934         1.440839        -0.223806
 H         2.230640         0.302845         2.134381
 H         1.052224         1.661145         2.598887
