19
Iteration:   758charge 0 multiplicity 1
 O         0.288175        -0.282303         4.646672
 C         0.330388        -0.361807         3.143029
 C         0.126684        -1.746155         2.669263
 C        -1.033891        -0.717706         2.552049
 C        -0.948605        -0.289424         1.134882
 C         0.419232         0.418624         0.906271
 C         0.931598         0.873450        -0.366363
 O         1.263398        -0.433325         0.023038
 C         1.025476         0.691644         2.312788
 H         1.259898        -0.289492         4.824389
 H         0.734717        -1.879782         1.728818
 H         0.252569        -2.534841         3.454784
 H        -1.820861        -1.106083         3.247696
 H        -1.062587        -1.098839         0.380039
 H        -1.711398         0.453501         0.894686
 H         0.256424         0.933565        -1.273805
 H         1.607043         1.720047        -0.408421
 H         2.160498         0.601066         2.284822
 H         0.787465         1.645237         2.661207
