19
Iteration:   731
 O         0.490572        -0.098692         4.605020
 C         0.233312        -0.391362         3.176022
 C         0.057842        -1.837042         2.762747
 C        -1.032139        -0.774152         2.430830
 C        -0.987200        -0.282096         1.051812
 C         0.443844         0.299633         0.919166
 C         0.868672         0.968156        -0.286620
 O         1.377631        -0.385053         0.019932
 C         0.924787         0.610935         2.314491
 H         1.257138        -0.716357         4.753377
 H         0.761485        -2.171009         2.013095
 H        -0.243762        -2.584800         3.438842
 H        -1.886179        -0.998075         3.007889
 H        -1.243428        -0.996218         0.269929
 H        -1.693753         0.623907         0.969606
 H         0.105833         0.931489        -1.046949
 H         1.603079         1.811505        -0.116839
 H         2.019456         0.384280         2.399499
 H         0.830382         1.750482         2.619258
