19
Iteration:  1559
 O         0.199138        -0.082532         4.564448
 C         0.381449        -0.464290         3.247464
 C         0.205691        -1.896302         2.826252
 C        -0.854350        -0.840760         2.396885
 C        -1.074207        -0.191721         1.072463
 C         0.360131         0.428718         0.912712
 C         0.890705         0.945233        -0.328600
 O         1.221390        -0.324332         0.022984
 C         1.135522         0.535405         2.300498
 H         0.648188        -0.737420         5.171466
 H         0.982169        -2.168984         2.102518
 H         0.064491        -2.662064         3.544162
 H        -1.811084        -1.090831         2.826299
 H        -1.405622        -0.732070         0.189738
 H        -1.730495         0.598061         1.377133
 H         0.298050         1.018269        -1.225846
 H         1.770684         1.669048        -0.452902
 H         2.286351         0.306269         2.008850
 H         1.128716         1.541493         2.656106
