19
Iteration:  4827charge 0 multiplicity 1
 O         0.440535        -0.027154         4.658382
 C         0.345748        -0.414247         3.208901
 C         0.566502        -1.839212         2.763566
 C        -0.853543        -1.138537         2.498335
 C        -0.968364        -0.527386         1.066727
 C         0.268764         0.360078         0.934176
 C         0.726329         1.018187        -0.423373
 O         1.280906        -0.192181         0.007335
 C         0.728727         0.764450         2.292193
 H        -0.382692         0.377126         5.015792
 H         0.981764        -1.910116         1.794796
 H         0.813000        -2.665520         3.435044
 H        -1.781362        -1.513649         2.954489
 H        -1.073469        -1.448695         0.347386
 H        -1.892861         0.075116         1.098846
 H        -0.033541         0.943680        -1.229688
 H         1.418510         1.912652        -0.412510
 H         1.799537         0.682743         2.432303
 H         0.356044         1.802560         2.556922
