19
Iteration:  2949
 O         0.256843        -0.309602         4.566316
 C         0.313694        -0.367501         3.179526
 C         0.340178        -1.716216         2.643792
 C        -0.912579        -0.837321         2.550223
 C        -1.085854        -0.171323         1.159273
 C         0.303653         0.379193         0.868584
 C         1.035055         0.888171        -0.406262
 O         1.231632        -0.411921         0.161455
 C         0.963173         0.682237         2.256686
 H         1.136913        -0.325494         4.991724
 H         0.903323        -2.064073         1.745101
 H         0.360640        -2.463426         3.519121
 H        -1.782392        -1.088046         3.226674
 H        -1.329552        -1.064212         0.461542
 H        -1.735217         0.745063         1.074551
 H         0.449006         0.805668        -1.277947
 H         1.727873         1.693586        -0.096361
 H         2.045299         0.743716         2.034077
 H         0.421110         1.690840         2.386877
