19
Iteration:  3475
 O         0.366821         0.067990         4.587567
 C         0.334111        -0.397369         3.234124
 C         0.056599        -1.950292         2.856120
 C        -0.896694        -0.850281         2.532634
 C        -0.907331        -0.471995         1.032687
 C         0.395586         0.311104         0.884752
 C         0.857723         1.097195        -0.321566
 O         1.189900        -0.231114        -0.183120
 C         1.149431         0.453729         2.371177
 H        -0.447989        -0.067641         5.049554
 H         0.565799        -2.465465         2.071371
 H        -0.204967        -2.473399         3.789004
 H        -1.832102        -0.812584         3.072065
 H        -0.734829        -1.393417         0.402827
 H        -1.822158        -0.038837         0.749287
 H         0.116023         1.608176        -1.014323
 H         1.714148         1.796277        -0.080162
 H         2.188083         0.194377         2.252422
 H         1.189148         1.388423         2.876644
