19
Iteration:  4928charge 0 multiplicity 1
 O         0.253671        -0.040130         4.551234
 C         0.337662        -0.341361         3.208878
 C         0.568770        -1.753137         2.922271
 C        -0.780924        -1.245405         2.492140
 C        -0.877329        -0.546918         1.141271
 C         0.355577         0.280363         0.923816
 C         0.504482         1.064418        -0.329267
 O         1.247906        -0.123120        -0.121302
 C         0.999204         0.673409         2.275935
 H        -0.581118         0.444111         4.716552
 H         1.320832        -2.101088         2.159373
 H         0.452120        -2.426320         3.760636
 H        -1.685726        -1.721049         2.832183
 H        -0.959250        -1.334248         0.322009
 H        -1.836264         0.052474         1.071308
 H        -0.339705         1.247215        -1.024587
 H         1.058118         1.952494        -0.309526
 H         2.090396         0.665540         2.024364
 H         0.680767         1.682368         2.674244
