19
Iteration:   854
 O         0.187002        -0.118781         4.585584
 C         0.349391        -0.344535         3.182061
 C         0.262740        -1.831168         2.755979
 C        -0.902589        -0.807110         2.542707
 C        -1.012245        -0.239852         1.124041
 C         0.427879         0.334728         0.886187
 C         0.944366         0.981508        -0.247547
 O         1.189053        -0.401455        -0.076733
 C         1.078645         0.545695         2.207957
 H         0.730741        -0.788551         5.096341
 H         0.876379        -2.388525         1.980937
 H         0.065524        -2.392157         3.649559
 H        -1.833240        -0.970448         3.203988
 H        -1.297831        -0.890138         0.329854
 H        -1.877214         0.520099         1.189268
 H         0.255012         1.224832        -1.061886
 H         1.701397         1.698784        -0.119728
 H         2.232708         0.446983         2.301011
 H         0.853636         1.615033         2.592989
