19
Iteration:  3790
 O         0.289735        -0.138096         4.609413
 C         0.309479        -0.344958         3.237981
 C         0.354043        -1.771615         2.805409
 C        -0.848467        -0.930262         2.574953
 C        -1.033478        -0.277539         1.155781
 C         0.389674         0.222584         0.861168
 C         0.734597         0.991490        -0.336678
 O         1.332362        -0.324424        -0.149538
 C         1.011081         0.597068         2.270205
 H        -0.641083        -0.348119         4.916999
 H         0.852374        -2.004593         1.802073
 H         0.767576        -2.595334         3.524934
 H        -1.757908        -0.772059         3.227516
 H        -1.316458        -0.946989         0.294857
 H        -1.748079         0.539494         1.384631
 H         0.144930         1.157975        -1.241909
 H         1.486252         1.777299        -0.097807
 H         2.129882         0.499410         2.231502
 H         0.639778         1.669881         2.497622
