19
Iteration:  1314
 O         0.187574         0.092525         4.579941
 C         0.305136        -0.489070         3.203172
 C         0.191084        -1.985449         2.985828
 C        -0.930622        -0.952252         2.418881
 C        -0.990879        -0.190288         1.048284
 C         0.455599         0.304949         0.915059
 C         0.843538         1.121436        -0.249298
 O         1.242665        -0.251796        -0.133955
 C         1.193447         0.355562         2.242217
 H         1.139122         0.004295         4.831465
 H         0.733198        -2.711697         2.231932
 H        -0.282757        -2.594668         3.786373
 H        -1.840286        -1.052508         2.974735
 H        -1.228889        -0.750435         0.197153
 H        -1.745556         0.624842         1.120189
 H         0.113614         1.261812        -1.090304
 H         1.540753         1.901388        -0.022586
 H         2.135787        -0.059258         2.033294
 H         1.245847         1.375155         2.754333
