19
Iteration:  4321
 O         0.336614         0.007103         4.536850
 C         0.320298        -0.410145         3.295670
 C         0.294866        -1.842332         2.888714
 C        -0.951723        -0.954537         2.512298
 C        -0.968038        -0.549791         1.077812
 C         0.448347         0.262978         0.870971
 C         0.686431         1.098871        -0.299327
 O         1.274640        -0.134753        -0.140099
 C         1.003503         0.553329         2.276883
 H         1.119061        -0.427470         4.919509
 H         1.013162        -2.244044         2.185377
 H         0.228759        -2.446743         3.844992
 H        -1.781725        -1.027825         3.187521
 H        -1.070062        -1.428846         0.311081
 H        -1.828389         0.042415         0.779421
 H        -0.155446         1.109991        -1.071213
 H         1.437718         1.933033        -0.158201
 H         2.065052         0.509867         2.377591
 H         0.693196         1.554252         2.520434
