19
Iteration:   952charge 0 multiplicity 1
 O         0.166522         0.008390         4.614801
 C         0.332883        -0.439698         3.315227
 C         0.128024        -1.863643         2.915731
 C        -0.926999        -0.837558         2.566459
 C        -0.995816        -0.372543         1.103561
 C         0.420344         0.280192         0.844850
 C         0.960719         1.152620        -0.264239
 O         1.238826        -0.290238        -0.302436
 C         1.160096         0.400840         2.247096
 H         0.836667        -0.592975         5.060000
 H         0.729539        -2.333131         2.079832
 H        -0.052204        -2.620682         3.699629
 H        -1.879309        -0.833306         3.129356
 H        -1.230033        -1.095306         0.390254
 H        -1.628359         0.532021         0.869421
 H         0.238125         1.510679        -0.990230
 H         1.799384         1.725682         0.049339
 H         2.251132         0.326608         2.141518
 H         0.998649         1.474214         2.547791
