19
Iteration:    56charge 0 multiplicity 1
 O         0.479220        -0.162455         4.554105
 C         0.276445        -0.431964         3.165132
 C         0.069773        -1.819354         2.832755
 C        -1.078428        -0.916758         2.525129
 C        -1.022991        -0.216882         1.067404
 C         0.374229         0.422599         0.874730
 C         0.915476         0.909945        -0.359434
 O         1.415350        -0.357181         0.080055
 C         0.938536         0.680241         2.251149
 H         1.222004        -0.714708         4.764766
 H         0.599213        -2.220177         1.926423
 H         0.057372        -2.365982         3.747969
 H        -2.032426        -0.915164         3.096078
 H        -1.158356        -0.919566         0.269423
 H        -1.796409         0.453620         0.918562
 H         0.394194         1.064427        -1.255638
 H         1.621429         1.670871        -0.195669
 H         2.027878         0.617211         2.248792
 H         0.586725         1.532176         2.778902
