19
Iteration:   778charge 0 multiplicity 1
 O         0.163673        -0.256466         4.593847
 C         0.396582        -0.329850         3.198741
 C         0.287796        -1.838115         2.688600
 C        -0.861876        -0.840952         2.498368
 C        -1.038772        -0.080938         1.165233
 C         0.385588         0.352225         0.887864
 C         0.913203         0.878827        -0.358315
 O         1.254109        -0.457726         0.038527
 C         1.014398         0.682525         2.302552
 H         1.011365        -0.306397         5.008638
 H         0.684093        -2.288118         1.768398
 H         0.094360        -2.554202         3.529272
 H        -1.826947        -0.905302         3.159968
 H        -1.389166        -0.759053         0.402206
 H        -1.812321         0.805460         1.215486
 H         0.252509         0.939979        -1.245264
 H         1.789606         1.464540        -0.471087
 H         2.161344         0.816625         2.077732
 H         0.690817         1.743119         2.570638
