19
Iteration:  2770
 O         0.234006        -0.013161         4.583273
 C         0.335589        -0.422444         3.192640
 C         0.012918        -1.882468         3.072490
 C        -0.964322        -0.834973         2.545736
 C        -0.830842        -0.495320         1.038902
 C         0.483032         0.140853         0.903584
 C         0.731802         1.272401        -0.168879
 O         1.288443        -0.091699        -0.340434
 C         1.300552         0.253732         2.225614
 H        -0.469251         0.621847         4.669816
 H         0.566648        -2.538904         2.449057
 H        -0.164466        -2.300965         4.068904
 H        -2.018594        -0.563812         2.995433
 H        -0.982309        -1.371948         0.359492
 H        -1.779885         0.172409         0.770566
 H        -0.046745         1.457693        -0.863927
 H         1.344898         2.071805         0.043264
 H         2.340353        -0.158955         2.066500
 H         1.539503         1.332171         2.551433
