19
Iteration:   388
 O         0.488069        -0.004455         4.556415
 C         0.215480        -0.387726         3.229093
 C         0.094807        -1.863836         2.836689
 C        -1.081859        -0.867437         2.445101
 C        -1.037554        -0.328433         1.055068
 C         0.461719         0.259120         0.967168
 C         0.786803         1.003996        -0.294898
 O         1.418108        -0.245995        -0.019031
 C         1.113481         0.497993         2.235249
 H         0.465161        -0.621815         5.317613
 H         0.708548        -2.289775         2.112729
 H         0.022211        -2.474358         3.742984
 H        -2.136976        -0.951850         2.825195
 H        -1.237600        -1.039650         0.180516
 H        -1.845232         0.435089         0.896126
 H         0.014133         0.831229        -1.121499
 H         1.402761         1.858443        -0.303205
 H         2.161667         0.446625         2.305939
 H         0.831360         1.479317         2.489876
