19
Iteration:  4175
 O         0.361842        -0.028247         4.553693
 C         0.276673        -0.436791         3.236220
 C         0.443425        -1.838633         2.971067
 C        -0.904846        -0.956840         2.448951
 C        -0.880173        -0.415251         1.072969
 C         0.418734         0.351321         0.925736
 C         0.623339         1.052218        -0.302364
 O         1.206977        -0.207475        -0.127760
 C         1.041099         0.539327         2.274090
 H        -0.492647        -0.278819         4.911877
 H         1.051483        -2.382556         2.244603
 H         0.178954        -2.516602         3.883572
 H        -1.936729        -1.237806         2.863548
 H        -0.846497        -1.129760         0.286987
 H        -1.736335         0.320409         0.864718
 H        -0.248230         1.000801        -1.024858
 H         1.255260         1.942662        -0.413214
 H         2.117580         0.404574         2.274358
 H         0.852810         1.534939         2.498238
