19
Iteration:   619charge 0 multiplicity 1
 O         0.287040        -0.001456         4.577324
 C         0.316917        -0.521389         3.202721
 C         0.093472        -1.990047         2.923881
 C        -0.887495        -0.821199         2.531561
 C        -0.984354        -0.225044         1.147239
 C         0.425209         0.322600         0.911369
 C         0.853173         1.066115        -0.306742
 O         1.357376        -0.304212        -0.208008
 C         1.140303         0.430622         2.273879
 H        -0.614645         0.237140         4.756817
 H         0.607942        -2.333308         2.033897
 H        -0.171614        -2.573116         3.871390
 H        -1.820394        -0.934751         3.106280
 H        -1.464661        -0.794264         0.234952
 H        -1.794346         0.558420         1.326112
 H        -0.012788         1.357035        -1.031169
 H         1.694542         1.836863        -0.334587
 H         2.205020         0.187538         2.141837
 H         1.093785         1.628056         2.500956
