19
Iteration:  3202charge 0 multiplicity 1
 O         0.200956         0.054290         4.516339
 C         0.333084        -0.480383         3.216932
 C         0.157268        -2.006414         2.901763
 C        -0.895185        -0.861282         2.577177
 C        -0.944229        -0.331870         1.079033
 C         0.407940         0.312325         0.920594
 C         0.836955         1.135608        -0.294459
 O         1.289688        -0.200558        -0.161676
 C         1.098308         0.411401         2.243326
 H         0.768349        -0.320935         5.204771
 H         0.671121        -2.518914         2.156356
 H         0.008169        -2.625179         3.790310
 H        -1.701331        -0.771202         3.317018
 H        -1.189085        -1.236882         0.433448
 H        -1.702968         0.497060         1.119341
 H         0.272685         1.187652        -1.245715
 H         1.494576         1.947327        -0.179996
 H         2.080342         0.038191         1.958703
 H         1.021965         1.422637         2.756010
