19
Iteration:  2396charge 0 multiplicity 1
 O         0.119581         0.012551         4.620294
 C         0.329073        -0.484901         3.276948
 C         0.153072        -1.981277         2.926471
 C        -0.941440        -0.818677         2.469654
 C        -0.839785        -0.161201         1.057869
 C         0.514551         0.332741         0.941382
 C         0.747714         1.063514        -0.324255
 O         1.256520        -0.260399        -0.232022
 C         1.186266         0.335016         2.278881
 H         0.916315        -0.012927         5.224230
 H         0.988174        -2.375649         2.185133
 H        -0.358751        -2.630730         3.657311
 H        -1.880301        -1.253717         3.001294
 H        -1.217140        -0.901692         0.365926
 H        -1.549259         0.605300         0.988065
 H        -0.184517         1.125547        -0.949720
 H         1.396056         2.000922        -0.348610
 H         2.264827         0.059175         2.196648
 H         1.315904         1.354876         2.664025
