19
Iteration:  4149
 O         0.379731        -0.015944         4.586229
 C         0.346037        -0.415117         3.239293
 C         0.336436        -1.899195         2.761286
 C        -0.887107        -0.967794         2.511713
 C        -0.981787        -0.440301         1.177671
 C         0.387229         0.329919         0.875088
 C         0.625617         1.015686        -0.382207
 O         1.320393        -0.233184        -0.049679
 C         0.994685         0.672552         2.336292
 H        -0.477187        -0.401345         4.807825
 H         0.956477        -2.270256         1.891943
 H         0.362246        -2.626538         3.557530
 H        -1.805110        -1.075213         3.011937
 H        -1.080451        -1.230508         0.381518
 H        -1.728530         0.394793         1.103649
 H         0.104884         0.784308        -1.328966
 H         1.212513         1.938163        -0.312304
 H         2.100039         0.531432         2.223614
 H         0.815644         1.821055         2.578599
