19
Iteration:  1773
 O         0.366407        -0.125975         4.535262
 C         0.210559        -0.412780         3.202941
 C         0.074294        -1.876074         2.753531
 C        -1.048494        -0.844919         2.571467
 C        -0.944723        -0.291163         1.154085
 C         0.524100         0.242081         0.922737
 C         0.781790         1.050461        -0.357722
 O         1.447830        -0.283275        -0.044453
 C         1.040475         0.638606         2.289035
 H         0.649594        -0.868460         5.034623
 H         0.545152        -2.305022         1.896295
 H        -0.118954        -2.643587         3.518307
 H        -1.926581        -0.698139         3.243786
 H        -1.133436        -1.156518         0.484388
 H        -1.493719         0.554829         0.940457
 H         0.096712         0.865588        -1.138510
 H         1.541938         1.804514        -0.485657
 H         2.041985         0.627832         2.479936
 H         0.628408         1.718659         2.465954
