19
Iteration:  3864charge 0 multiplicity 1
 O         0.250194         0.011138         4.579802
 C         0.290081        -0.379695         3.190725
 C         0.161088        -1.895401         2.995777
 C        -0.880292        -0.989954         2.629797
 C        -0.951958        -0.550183         1.075269
 C         0.413584         0.193254         0.804403
 C         0.722577         1.199873        -0.205781
 O         1.332067        -0.111684        -0.267347
 C         1.121185         0.453684         2.223535
 H         1.062886         0.462653         4.727083
 H         0.742918        -2.279957         2.185029
 H         0.188672        -2.614207         3.799617
 H        -1.810632        -0.992532         3.266639
 H        -1.219656        -1.375699         0.496725
 H        -1.642784         0.265434         1.044493
 H         0.082261         1.355890        -1.123118
 H         1.221750         2.158239         0.052487
 H         2.171592         0.229770         2.284232
 H         0.877170         1.445696         2.420561
