19
Iteration:   419charge 0 multiplicity 1
 O         0.446728        -0.034392         4.534141
 C         0.311170        -0.514631         3.204964
 C         0.108071        -1.946896         2.785818
 C        -0.968542        -0.843040         2.531716
 C        -0.957853        -0.283428         1.093806
 C         0.400838         0.381728         0.924402
 C         0.847757         0.967876        -0.381887
 O         1.314974        -0.342415         0.037363
 C         1.019261         0.680743         2.283952
 H        -0.015396        -0.382606         5.316675
 H         0.518617        -2.465871         1.934170
 H        -0.018282        -2.642915         3.643527
 H        -2.026323        -0.890601         2.913440
 H        -1.091479        -1.093977         0.284095
 H        -1.746882         0.475873         1.130367
 H         0.312051         1.025776        -1.237305
 H         1.535733         1.748549        -0.468190
 H         2.127893         0.710666         2.162446
 H         0.606967         1.660760         2.591256
