19
Iteration:  1825charge 0 multiplicity 1
 O         0.245047        -0.174957         4.546198
 C         0.256920        -0.362615         3.166749
 C         0.327227        -1.792211         2.651135
 C        -0.891053        -0.967373         2.407011
 C        -1.008486        -0.131446         1.147372
 C         0.379690         0.445872         0.977855
 C         1.009681         0.890761        -0.323960
 O         1.138342        -0.481322         0.096658
 C         0.975844         0.668407         2.312909
 H         1.134090        -0.264939         4.898246
 H         0.938027        -1.958454         1.806247
 H         0.466861        -2.385822         3.518827
 H        -1.820494        -1.343799         2.879345
 H        -1.219532        -0.655344         0.160042
 H        -1.699658         0.753885         1.608433
 H         0.323897         1.119610        -1.181673
 H         1.898912         1.460966        -0.422351
 H         2.047600         0.495777         2.454658
 H         0.693098         1.677356         2.651795
