19
Iteration:   925charge 0 multiplicity 1
 O         0.327793        -0.068214         4.528328
 C         0.241053        -0.386138         3.173932
 C         0.032955        -1.883192         2.853209
 C        -0.991976        -0.796704         2.524766
 C        -0.943893        -0.394674         1.084093
 C         0.398714         0.299423         0.946877
 C         0.822851         1.074673        -0.240351
 O         1.346721        -0.253567        -0.078363
 C         1.151701         0.430454         2.279220
 H         1.323389         0.005364         4.597583
 H         0.460687        -2.433266         2.054068
 H        -0.094348        -2.338287         3.864743
 H        -1.958339        -0.639442         3.001318
 H        -1.052178        -1.285218         0.318086
 H        -1.632883         0.338223         0.691045
 H         0.077019         1.299285        -1.057706
 H         1.629391         1.934690        -0.085272
 H         2.201652         0.074063         2.147748
 H         1.219900         1.490644         2.535387
