19
Iteration:  2867charge 0 multiplicity 1
 O         0.109613        -0.036017         4.624523
 C         0.377143        -0.443191         3.274304
 C         0.218440        -1.864399         2.867516
 C        -0.896695        -0.884041         2.524428
 C        -0.998031        -0.357465         1.172331
 C         0.385703         0.364729         0.899284
 C         0.845985         1.134081        -0.338342
 O         1.317864        -0.301139        -0.231844
 C         1.118947         0.462723         2.246507
 H         0.629797        -0.565326         5.218581
 H         0.850618        -2.158448         2.070173
 H         0.086918        -2.575458         3.675323
 H        -1.756216        -0.909611         3.284704
 H        -1.165227        -1.162983         0.509966
 H        -1.879097         0.316145         1.068442
 H         0.280275         1.334277        -1.304288
 H         1.695308         1.784569        -0.388577
 H         2.201322         0.292257         2.148825
 H         1.099399         1.517310         2.403862
