19
Iteration:   935
 O         0.266182        -0.072116         4.564469
 C         0.296196        -0.372817         3.155341
 C         0.057423        -1.847752         2.884849
 C        -1.011133        -0.822308         2.548803
 C        -0.935061        -0.344648         1.116747
 C         0.483218         0.237718         0.865943
 C         0.862565         1.136669        -0.212744
 O         1.286078        -0.245567        -0.117893
 C         1.096889         0.435735         2.194733
 H         1.184978        -0.107857         4.907957
 H         0.507706        -2.418417         2.085876
 H        -0.004926        -2.473426         3.827818
 H        -1.896392        -0.797858         3.146788
 H        -0.923185        -1.349062         0.518394
 H        -1.848178         0.205640         0.920837
 H         0.286423         1.251182        -1.137761
 H         1.807914         1.787333        -0.092517
 H         2.140968        -0.070782         2.105155
 H         1.206902         1.415814         2.649458
