19
Iteration:  2702charge 0 multiplicity 1
 O         0.256183         0.215546         4.430037
 C         0.274144        -0.485812         3.203591
 C         0.162761        -1.937971         3.078053
 C        -0.916016        -0.925804         2.471288
 C        -1.002520        -0.412217         1.098592
 C         0.388183         0.244246         0.884643
 C         0.869978         1.246281        -0.080272
 O         1.286638        -0.125548        -0.185506
 C         1.205794         0.173624         2.104012
 H        -0.267293        -0.427088         4.962003
 H         0.898746        -2.458782         2.392283
 H        -0.167632        -2.359419         4.012335
 H        -1.860230        -0.966530         2.952935
 H        -1.184646        -1.195797         0.353301
 H        -1.776730         0.427910         0.906636
 H         0.100835         1.489563        -0.789891
 H         1.466538         1.968060         0.331602
 H         2.166205        -0.394291         2.046425
 H         1.660610         1.087015         2.513988
