19
Iteration:  1377charge 0 multiplicity 1
 O         0.080191        -0.019470         4.559942
 C         0.421396        -0.464972         3.266378
 C         0.198270        -1.866365         2.803804
 C        -0.896892        -0.774232         2.501661
 C        -0.920917        -0.314605         1.081751
 C         0.482036         0.225298         0.958475
 C         0.909131         1.089987        -0.210489
 O         1.130988        -0.317910        -0.183855
 C         1.152384         0.470746         2.257722
 H         0.827754        -0.202900         5.151185
 H         0.586857        -2.248819         1.794900
 H        -0.349237        -2.510694         3.486892
 H        -1.683306        -0.867608         3.202459
 H        -0.963816        -1.223035         0.411413
 H        -1.749666         0.431428         1.047894
 H         0.249092         1.454331        -0.934911
 H         1.808787         1.757565        -0.197364
 H         2.212919         0.270360         2.126009
 H         1.034749         1.570722         2.703735
