19
Iteration:  3543
 O         0.204195         0.123197         4.562970
 C         0.338105        -0.502791         3.248867
 C         0.046084        -2.031281         2.999228
 C        -0.912697        -0.843015         2.578868
 C        -0.873448        -0.411488         1.035118
 C         0.517911         0.251312         0.839032
 C         0.631567         1.153447        -0.242022
 O         1.382356        -0.124563        -0.223502
 C         1.119557         0.292472         2.232598
 H         1.103138         0.498962         4.735481
 H         0.509936        -2.615296         2.147352
 H        -0.125652        -2.434826         4.000645
 H        -1.787561        -0.713053         3.197240
 H        -1.034058        -1.277760         0.362672
 H        -1.625518         0.303358         0.844095
 H        -0.084585         1.469692        -0.989404
 H         1.415352         2.003569         0.004046
 H         2.170727        -0.035051         2.272193
 H         1.173731         1.346128         2.413193
