19
Iteration:  2468charge 0 multiplicity 1
 O         0.396644        -0.057356         4.584294
 C         0.323132        -0.500154         3.205053
 C         0.140460        -1.946325         2.747138
 C        -1.018759        -0.885842         2.461744
 C        -0.998379        -0.195177         1.071718
 C         0.363427         0.346141         0.899283
 C         0.943110         0.994791        -0.375142
 O         1.310942        -0.321712         0.112517
 C         0.946866         0.629182         2.292225
 H         1.144680        -0.586473         4.921161
 H         0.760943        -2.241873         1.946012
 H        -0.009702        -2.564561         3.585722
 H        -1.943206        -1.174822         2.984440
 H        -1.398899        -0.923995         0.321864
 H        -1.767099         0.685989         1.025929
 H         0.418427         1.025847        -1.323082
 H         1.826355         1.686279        -0.338716
 H         2.032538         0.594946         2.230852
 H         0.722892         1.677067         2.604454
