19
Iteration:  1558charge 0 multiplicity 1
 O         0.192603        -0.077507         4.560330
 C         0.381733        -0.469482         3.238622
 C         0.211981        -1.902556         2.828932
 C        -0.846245        -0.838033         2.396719
 C        -1.076768        -0.194127         1.075170
 C         0.365430         0.431132         0.920122
 C         0.892562         0.939471        -0.331644
 O         1.218201        -0.326866         0.028396
 C         1.141308         0.542487         2.297045
 H         0.623415        -0.759526         5.162477
 H         0.969419        -2.172086         2.087496
 H         0.053095        -2.673155         3.503346
 H        -1.818458        -1.118206         2.851070
 H        -1.425582        -0.685100         0.188963
 H        -1.758636         0.634272         1.391249
 H         0.298418         1.025998        -1.208353
 H         1.735270         1.656022        -0.446100
 H         2.283149         0.318329         1.993468
 H         1.127086         1.563776         2.685649
