19
Iteration:  2836
 O         0.323216        -0.013566         4.550756
 C         0.279939        -0.432474         3.238367
 C         0.033383        -1.867627         2.927318
 C        -0.970384        -0.914994         2.455672
 C        -0.873412        -0.463621         1.056127
 C         0.515254         0.230422         0.913117
 C         0.726274         1.183951        -0.144477
 O         1.307333        -0.230295        -0.241489
 C         1.101797         0.468799         2.310619
 H         1.277250         0.202479         4.769030
 H         0.596262        -2.522303         2.333793
 H        -0.118453        -2.299511         3.901900
 H        -2.023308        -0.722314         2.881630
 H        -0.971360        -1.236657         0.265392
 H        -1.672149         0.327557         0.744326
 H         0.034953         1.266507        -0.919572
 H         1.517099         1.817455        -0.078091
 H         2.236741         0.471909         2.312067
 H         0.786265         1.565020         2.481265
