19
Iteration:  1427charge 0 multiplicity 1
 O         0.532035        -0.035227         4.637542
 C         0.217418        -0.438166         3.242671
 C         0.018050        -1.915921         2.753825
 C        -1.050831        -0.835477         2.449825
 C        -1.035768        -0.182376         1.056540
 C         0.450182         0.267754         0.870306
 C         0.840401         0.968594        -0.412258
 O         1.490002        -0.280118         0.017107
 C         0.991858         0.532071         2.331401
 H         0.501381        -0.905922         5.145432
 H         0.726394        -2.255412         2.055842
 H        -0.082157        -2.534986         3.626899
 H        -2.104231        -1.150998         2.846973
 H        -1.463634        -0.956559         0.381679
 H        -1.720221         0.660919         1.011261
 H         0.003315         0.921189        -1.186754
 H         1.356706         1.984346        -0.322253
 H         2.139497         0.495286         2.525503
 H         0.638528         1.458805         2.659008
