19
Iteration:  1208
 O         0.210988         0.017917         4.453652
 C         0.383984        -0.516094         3.218212
 C         0.126003        -1.962317         2.745479
 C        -0.926062        -0.857867         2.527613
 C        -1.012100        -0.162543         1.145288
 C         0.427115         0.310616         0.957978
 C         0.866917         1.006977        -0.266238
 O         1.274583        -0.329647        -0.014415
 C         1.117060         0.497063         2.247612
 H         1.020215        -0.177350         4.996588
 H         0.607877        -2.412559         1.942182
 H        -0.094151        -2.587223         3.561530
 H        -1.696313        -0.776222         3.267552
 H        -1.261733        -0.897420         0.287924
 H        -1.841035         0.576023         1.245645
 H         0.393212         1.197798        -1.283668
 H         1.673438         1.649753         0.014846
 H         2.306494         0.525249         2.222528
 H         0.830076         1.522230         2.527969
