19
Iteration:   186
 O         0.311803         0.071715         4.500775
 C         0.306603        -0.456189         3.151680
 C         0.127126        -1.922234         2.702033
 C        -0.961721        -0.895120         2.509418
 C        -0.994314        -0.165217         1.105969
 C         0.410194         0.260882         0.930609
 C         0.756499         0.988631        -0.223883
 O         1.429767        -0.386938         0.096182
 C         1.083229         0.520606         2.233692
 H         1.147238        -0.282094         4.855267
 H         0.429878        -2.339406         1.723587
 H        -0.161114        -2.727742         3.493928
 H        -1.903387        -0.811795         3.114730
 H        -1.301630        -0.872088         0.205618
 H        -1.674257         0.696022         1.305982
 H        -0.059805         1.088439        -0.969262
 H         1.534941         1.759877        -0.274479
 H         2.155345         0.495079         2.286125
 H         0.749517         1.484414         2.521199
