19
Iteration:   225charge 0 multiplicity 1
 O         0.393774        -0.172491         4.691776
 C         0.222021        -0.304081         3.226380
 C         0.074748        -1.800526         2.882635
 C        -1.019935        -0.830522         2.546878
 C        -0.950344        -0.335301         1.096500
 C         0.471151         0.363767         0.854753
 C         0.873697         1.091859        -0.430232
 O         1.365277        -0.399558        -0.107646
 C         0.982636         0.572599         2.270041
 H         0.730387        -1.026554         5.012110
 H         0.607608        -2.258049         2.063789
 H         0.063878        -2.483374         3.651610
 H        -1.986300        -0.803200         3.072947
 H        -0.929891        -1.126172         0.411170
 H        -1.755439         0.288162         0.727817
 H         0.200514         1.058610        -1.344428
 H         1.765825         1.596824        -0.382075
 H         2.085124         0.559714         2.225816
 H         0.735043         1.679983         2.581435
