19
Iteration:  3311charge 0 multiplicity 1
 O         0.464653        -0.119044         4.504847
 C         0.315581        -0.386114         3.165466
 C         0.159648        -1.883201         2.618357
 C        -0.933864        -0.803970         2.423756
 C        -1.027000        -0.147734         1.092092
 C         0.425759         0.328445         0.941922
 C         0.859200         0.852076        -0.310485
 O         1.259087        -0.416025         0.212675
 C         0.987705         0.699257         2.328516
 H         0.048338        -0.843723         5.060772
 H         0.654991        -2.187116         1.738044
 H         0.133185        -2.592896         3.410600
 H        -1.919838        -1.056626         2.977186
 H        -1.282414        -0.858911         0.241402
 H        -1.793446         0.636883         1.179843
 H         0.317604         0.904046        -1.306262
 H         1.564629         1.634653        -0.183291
 H         2.093459         0.735710         2.252807
 H         0.675267         1.707066         2.763969
