19
Iteration:  4915charge 0 multiplicity 1
 O         0.271871         0.050176         4.674083
 C         0.353475        -0.399755         3.283348
 C         0.583487        -1.842879         2.903664
 C        -0.753324        -1.159765         2.433893
 C        -0.908649        -0.542543         1.068522
 C         0.337667         0.362995         0.876063
 C         0.474915         1.113752        -0.341549
 O         1.260242        -0.162497        -0.121050
 C         0.946000         0.609077         2.244620
 H        -0.659607        -0.205982         4.913340
 H         1.345716        -1.915323         2.138129
 H         0.662780        -2.543020         3.730719
 H        -1.595343        -1.482007         2.986286
 H        -0.864183        -1.274809         0.110014
 H        -1.845433         0.076996         1.002110
 H        -0.240216         0.723533        -1.138131
 H         1.073674         2.005517        -0.380119
 H         2.007284         0.493131         2.385823
 H         0.711019         1.661675         2.508180
