19
Iteration:  3538charge 0 multiplicity 1
 O         0.216145         0.091293         4.554523
 C         0.338909        -0.516906         3.266387
 C         0.037550        -1.989020         3.014382
 C        -0.922096        -0.810909         2.612066
 C        -0.903620        -0.410214         1.042560
 C         0.506199         0.199676         0.835614
 C         0.657412         1.168318        -0.240198
 O         1.432655        -0.110119        -0.247725
 C         1.134767         0.283838         2.229064
 H         1.027485         0.595302         4.607276
 H         0.466943        -2.528367         2.220294
 H        -0.034945        -2.493017         3.998351
 H        -1.956319        -0.853310         3.044989
 H        -1.063752        -1.258648         0.350947
 H        -1.720787         0.368462         0.792433
 H        -0.220413         1.398119        -0.913727
 H         1.256453         1.987446        -0.084618
 H         2.199877         0.027970         2.145902
 H         0.986860         1.386734         2.531768
