19
Iteration:  1104
 O         0.356333        -0.146023         4.486172
 C         0.318536        -0.411230         3.121242
 C         0.122844        -1.838001         2.635701
 C        -0.965805        -0.886624         2.517774
 C        -1.080153        -0.121346         1.182726
 C         0.341832         0.396782         0.896687
 C         0.981018         0.842747        -0.293173
 O         1.337704        -0.374293         0.180100
 C         0.996332         0.646929         2.276774
 H         1.141108        -0.629185         4.748027
 H         0.674644        -2.119572         1.710162
 H         0.032147        -2.682489         3.425511
 H        -1.732807        -0.902394         3.237374
 H        -1.326886        -0.817776         0.408883
 H        -1.843093         0.678696         1.137093
 H         0.386640         0.804413        -1.218552
 H         1.799539         1.625518        -0.352134
 H         2.031982         0.613530         2.229372
 H         0.663014         1.625715         2.692128
