19
Iteration:  2752
 O         0.233936         0.099078         4.562403
 C         0.301081        -0.437756         3.314294
 C         0.037319        -1.918746         3.064327
 C        -0.870888        -0.866498         2.475457
 C        -0.790301        -0.437761         1.010521
 C         0.653377         0.172184         0.915742
 C         0.671001         1.247287        -0.106522
 O         1.141622        -0.136908        -0.424521
 C         1.258796         0.215063         2.280631
 H        -0.696923         0.266212         4.594587
 H         0.669433        -2.480523         2.367387
 H        -0.503063        -2.451512         3.870131
 H        -1.834246        -0.787817         2.909744
 H        -0.878860        -1.256137         0.273955
 H        -1.448393         0.337490         0.744525
 H        -0.203907         1.701381        -0.622836
 H         1.642611         1.919969        -0.119037
 H         2.270389        -0.131196         2.410247
 H         1.360999         1.230715         2.627597
