19
Iteration:  2554charge 0 multiplicity 1
 O         0.207122        -0.106699         4.554529
 C         0.321565        -0.377497         3.137589
 C         0.376385        -1.798765         2.721636
 C        -0.865819        -0.990231         2.399652
 C        -1.041731        -0.099326         1.144958
 C         0.402464         0.414550         0.915493
 C         0.994576         0.907262        -0.264573
 O         1.095361        -0.483777         0.013089
 C         0.999032         0.614789         2.364314
 H         1.054324        -0.369164         5.028268
 H         1.061474        -2.140386         1.931870
 H         0.216347        -2.537560         3.439999
 H        -1.768426        -1.237878         3.094999
 H        -1.398125        -0.624277         0.254674
 H        -1.751390         0.654469         1.373419
 H         0.428958         1.172206        -1.206890
 H         1.903434         1.637192        -0.195513
 H         2.074794         0.659622         2.363733
 H         0.597328         1.601098         2.530029
