19
Iteration:  1240
 O         0.411541        -0.034956         4.604493
 C         0.185413        -0.420841         3.260731
 C         0.051044        -1.909628         2.894302
 C        -1.039101        -0.890773         2.503750
 C        -0.925009        -0.246474         1.030330
 C         0.464124         0.311786         0.885511
 C         0.801448         1.033530        -0.334718
 O         1.380332        -0.244496        -0.105504
 C         1.076503         0.484397         2.289652
 H         0.986938        -0.717172         5.027319
 H         0.660857        -2.420687         2.183340
 H        -0.177323        -2.472960         3.783985
 H        -2.007281        -0.894174         2.956059
 H        -1.062878        -1.043375         0.237676
 H        -1.698344         0.558439         0.934770
 H         0.145611         1.190683        -1.287409
 H         1.492199         1.850833        -0.245564
 H         2.123705        -0.002796         2.300280
 H         1.003558         1.509057         2.496907
