19
Iteration:   163
 O         0.175566        -0.047648         4.512979
 C         0.343947        -0.468921         3.218747
 C         0.182173        -1.871418         2.745413
 C        -0.903030        -0.908828         2.521229
 C        -0.976345        -0.166678         1.197630
 C         0.400145         0.366549         0.929999
 C         0.970807         0.972739        -0.344809
 O         1.183847        -0.410234        -0.098953
 C         1.089240         0.569461         2.334063
 H         1.063780         0.143781         4.850735
 H         0.963260        -2.234003         2.070045
 H         0.009494        -2.466446         3.637742
 H        -1.859853        -1.023953         3.102417
 H        -1.230497        -0.982299         0.396995
 H        -1.762738         0.653279         1.299583
 H         0.368303         1.203160        -1.308749
 H         1.884853         1.527704        -0.283097
 H         2.159408         0.455190         2.328093
 H         0.866796         1.553793         2.775778
