19
Iteration:   551charge 0 multiplicity 1
 O         0.393118        -0.196204         4.715793
 C         0.243330        -0.370012         3.243300
 C         0.188402        -1.749643         2.703269
 C        -1.011562        -0.792885         2.527075
 C        -1.034006        -0.301179         1.086610
 C         0.512294         0.256758         0.884187
 C         0.917721         0.994893        -0.323455
 O         1.315373        -0.395780        -0.052982
 C         0.946199         0.574789         2.267418
 H         1.003677         0.541436         4.891338
 H         0.529530        -1.805741         1.662315
 H         0.210589        -2.562385         3.343277
 H        -2.041085        -0.974765         2.850830
 H        -1.330706        -1.099890         0.294069
 H        -1.752576         0.459751         0.838921
 H        -0.055554         1.095632        -0.906492
 H         1.678964         1.730955        -0.417192
 H         2.084920         0.447707         2.309420
 H         0.699807         1.698406         2.602462
