19
Iteration:  4723charge 0 multiplicity 1
 O         0.372434        -0.017261         4.579625
 C         0.328946        -0.347569         3.190129
 C         0.560317        -1.777550         2.769923
 C        -0.768781        -1.091729         2.445605
 C        -1.027773        -0.424762         1.097255
 C         0.281139         0.294943         0.952572
 C         0.675574         1.090553        -0.215832
 O         1.261697        -0.335479         0.007152
 C         0.879723         0.681623         2.201286
 H        -0.473644        -0.267420         4.983649
 H         1.303444        -2.109185         2.043308
 H         0.403195        -2.521512         3.619271
 H        -1.545757        -1.682979         2.907827
 H        -1.098856        -1.151394         0.337472
 H        -1.892522         0.306474         1.047113
 H        -0.084551         1.089438        -1.021500
 H         1.362971         1.819348        -0.380305
 H         1.934467         0.956233         2.112241
 H         0.311942         1.525340         2.400800
