19
Iteration:   292charge 0 multiplicity 1
 O         0.153462         0.134546         4.568616
 C         0.253601        -0.458671         3.212514
 C         0.230292        -1.892705         2.791451
 C        -0.868458        -0.988588         2.431890
 C        -1.035329        -0.189148         1.168692
 C         0.386019         0.261520         0.928518
 C         0.817035         1.046298        -0.289393
 O         1.356580        -0.301460        -0.108646
 C         1.137329         0.326395         2.299928
 H         1.067543         0.426893         4.587026
 H         0.895479        -2.112179         2.018671
 H         0.160569        -2.618776         3.576703
 H        -1.755439        -1.077187         3.111243
 H        -1.681912        -0.411123         0.421129
 H        -1.594081         0.635023         1.608873
 H         0.174208         1.032848        -1.236496
 H         1.583829         1.745771        -0.176910
 H         2.084662        -0.203558         2.275107
 H         1.358677         1.414937         2.654062
