19
Iteration:   317charge 0 multiplicity 1
 O         0.093712         0.054383         4.535482
 C         0.293211        -0.504900         3.224639
 C         0.264777        -1.920055         2.914011
 C        -0.894771        -0.926633         2.489086
 C        -0.920317        -0.149291         1.153847
 C         0.468199         0.291784         0.975335
 C         0.820577         1.083004        -0.294226
 O         1.196088        -0.315132        -0.154805
 C         1.183440         0.386831         2.249517
 H         0.876734         0.648206         4.566084
 H         0.927621        -2.371755         2.128905
 H        -0.142312        -2.674068         3.635897
 H        -1.754847        -1.348439         2.923939
 H        -1.250372        -0.729150         0.256703
 H        -1.712253         0.606154         1.163174
 H         0.112578         1.218342        -1.019501
 H         1.792029         1.597168        -0.348960
 H         2.244106         0.037477         2.213757
 H         1.185423         1.483602         2.568929
