19
Iteration:  4096
 O         0.500890        -0.060915         4.544694
 C         0.226831        -0.317523         3.205128
 C         0.470462        -1.771606         2.701935
 C        -0.843331        -1.085589         2.449242
 C        -0.985618        -0.326092         1.081824
 C         0.290858         0.388344         0.937428
 C         0.851573         0.950419        -0.317365
 O         1.145809        -0.411856         0.097765
 C         0.798257         0.757547         2.291926
 H         0.000577        -0.740547         5.013234
 H         1.239996        -2.096171         1.843106
 H         0.398168        -2.515471         3.538916
 H        -1.631549        -1.606224         2.958051
 H        -1.118796        -1.021213         0.256527
 H        -1.696924         0.587023         1.216614
 H         0.248126         1.118468        -1.252989
 H         1.753136         1.573473        -0.205119
 H         1.896895         0.841904         2.272923
 H         0.362835         1.702752         2.606976
