19
Iteration:  1676charge 0 multiplicity 1
 O         0.132282         0.143631         4.570544
 C         0.330636        -0.485771         3.273420
 C         0.152428        -1.885079         2.908553
 C        -0.859062        -0.865157         2.442083
 C        -0.852844        -0.292411         1.068946
 C         0.546581         0.157712         0.891904
 C         0.727891         1.201848        -0.166520
 O         1.192212        -0.216749        -0.273073
 C         1.208287         0.221983         2.287777
 H         0.162052        -0.544953         5.231299
 H         0.917964        -2.417458         2.270050
 H        -0.345262        -2.558437         3.588477
 H        -1.783673        -0.802149         3.070151
 H        -1.154677        -0.915019         0.226886
 H        -1.584725         0.646488         1.265925
 H         0.020899         1.426390        -0.983204
 H         1.593254         1.883859        -0.033187
 H         2.177208        -0.093818         2.314316
 H         1.262604         1.338265         2.530992
