19
Iteration:   729
 O         0.491246        -0.085944         4.598604
 C         0.225793        -0.396755         3.163453
 C         0.043933        -1.834378         2.773138
 C        -1.028817        -0.783943         2.441878
 C        -0.983979        -0.268774         1.056469
 C         0.426808         0.305050         0.917866
 C         0.871534         0.973239        -0.280638
 O         1.387401        -0.383605         0.007035
 C         0.934979         0.596065         2.317354
 H         1.234790        -0.750090         4.753903
 H         0.818429        -2.215485         2.027629
 H        -0.233039        -2.593950         3.482285
 H        -1.900100        -1.060746         2.985373
 H        -1.279775        -1.002214         0.233963
 H        -1.615233         0.613166         0.997859
 H         0.097335         0.866245        -1.050656
 H         1.619160         1.820980        -0.045727
 H         2.029219         0.474489         2.307817
 H         0.798511         1.700015         2.670740
