19
Iteration:  3502
 O         0.446634        -0.052612         4.607547
 C         0.245919        -0.341746         3.216037
 C         0.029711        -1.876774         3.018556
 C        -1.038092        -0.830208         2.529965
 C        -0.856371        -0.485438         0.985240
 C         0.465268         0.172692         0.826788
 C         0.720493         1.190786        -0.196470
 O         1.363831        -0.194911        -0.195736
 C         1.113635         0.402483         2.236160
 H        -0.098999         0.677608         4.897105
 H         0.452841        -2.492193         2.159175
 H         0.038659        -2.265557         4.019214
 H        -2.110688        -1.006128         2.809424
 H        -0.909101        -1.354034         0.343351
 H        -1.713576         0.227339         0.718381
 H        -0.079302         1.283137        -0.899802
 H         1.331668         2.096867        -0.109038
 H         2.160518        -0.017875         2.145955
 H         1.311777         1.453347         2.654090
