19
Iteration:   825
 O         0.206907         0.053719         4.615830
 C         0.295786        -0.449430         3.239648
 C         0.388634        -1.799324         2.595661
 C        -0.922100        -1.001880         2.396394
 C        -1.074889        -0.110867         1.132259
 C         0.451845         0.431203         0.965787
 C         0.964023         0.881659        -0.293144
 O         1.088660        -0.466852        -0.013332
 C         1.096949         0.530766         2.327650
 H         0.680004        -0.521660         5.263978
 H         1.234597        -1.963587         1.814072
 H         0.257105        -2.565443         3.369055
 H        -1.818447        -1.323041         2.894822
 H        -1.370338        -0.547477         0.099090
 H        -1.832246         0.635760         1.400446
 H         0.220283         1.207410        -1.070217
 H         1.873010         1.585502        -0.328960
 H         2.170448         0.273522         2.483856
 H         0.949931         1.467317         2.787964
