19
Iteration:  4700charge 0 multiplicity 1
 O         0.312221         0.033529         4.542506
 C         0.333373        -0.402274         3.215372
 C         0.493429        -1.843179         2.805075
 C        -0.840912        -1.091517         2.521682
 C        -0.963356        -0.530830         1.175951
 C         0.276066         0.310041         0.926704
 C         0.702797         1.079471        -0.414831
 O         1.296742        -0.207114        -0.090263
 C         0.874470         0.685694         2.347528
 H         0.307774        -0.664486         5.239238
 H         0.984025        -2.137245         1.859137
 H         0.637159        -2.624607         3.581662
 H        -1.745637        -1.214451         3.115070
 H        -1.109334        -1.140065         0.347433
 H        -1.804134         0.223665         1.250361
 H         0.216133         1.032459        -1.407115
 H         1.239818         1.979893        -0.329261
 H         1.969920         0.667618         2.172491
 H         0.559313         1.596703         2.729312
