19
Iteration:   311charge 0 multiplicity 1
 O         0.118932         0.085864         4.521921
 C         0.317820        -0.484665         3.253382
 C         0.294159        -1.950170         2.900737
 C        -0.953263        -0.971759         2.466310
 C        -0.979718        -0.128110         1.157544
 C         0.480957         0.297988         0.942341
 C         0.838074         1.079192        -0.309625
 O         1.231480        -0.326213        -0.125522
 C         1.175115         0.347532         2.270293
 H         0.791563         0.725660         4.743039
 H         1.032866        -2.243662         2.138916
 H        -0.141737        -2.672666         3.537064
 H        -1.892540        -1.337399         2.976981
 H        -1.319540        -0.732149         0.268081
 H        -1.622266         0.800616         1.183470
 H        -0.073737         1.244311        -1.046035
 H         1.657312         1.844013        -0.323467
 H         2.198242         0.011809         2.111051
 H         1.186580         1.346026         2.622330
