19
Iteration:   524charge 0 multiplicity 1
 O         0.206402        -0.188490         4.540037
 C         0.385778        -0.449340         3.112880
 C         0.219499        -1.845510         2.759921
 C        -0.869078        -0.845902         2.491503
 C        -1.013735        -0.191128         1.187551
 C         0.399609         0.368912         0.963783
 C         0.896004         0.910616        -0.399767
 O         1.262939        -0.412839         0.039125
 C         1.016627         0.675242         2.271369
 H         0.928131         0.368921         4.812846
 H         0.850646        -2.215414         1.955125
 H         0.097715        -2.329203         3.788444
 H        -1.863506        -1.117184         2.915863
 H        -1.510385        -0.629972         0.369421
 H        -1.601620         0.754077         1.357088
 H         0.114635         0.899971        -1.168514
 H         1.715163         1.655029        -0.163985
 H         2.096094         0.627310         2.152918
 H         0.751733         1.544755         2.791413
