19
Iteration:  2540charge 0 multiplicity 1
 O         0.122159        -0.260937         4.611298
 C         0.354517        -0.344957         3.247741
 C         0.417777        -1.777830         2.648605
 C        -0.876731        -0.895733         2.494371
 C        -1.089270        -0.130672         1.182144
 C         0.344316         0.400303         0.928308
 C         1.049548         0.876281        -0.419657
 O         1.131090        -0.474133         0.018287
 C         1.005102         0.743548         2.269956
 H         0.950582        -0.455938         5.042348
 H         1.013867        -1.947628         1.784641
 H         0.355106        -2.481444         3.495227
 H        -1.693622        -1.043724         3.087580
 H        -1.327088        -0.731681         0.324739
 H        -1.825192         0.638154         1.253058
 H         0.457312         1.066175        -1.387530
 H         1.973833         1.404402        -0.208843
 H         2.102338         0.556103         2.229552
 H         0.969245         1.721014         2.815730
