19
Iteration:  1865
 O         0.076127        -0.111166         4.556837
 C         0.423175        -0.413989         3.224300
 C         0.386949        -1.812425         2.554905
 C        -0.804292        -0.945849         2.449740
 C        -1.053027        -0.003890         1.194668
 C         0.379383         0.366777         0.945602
 C         0.986352         0.910680        -0.300535
 O         1.133047        -0.480234         0.078457
 C         0.974024         0.558018         2.281637
 H         0.941628         0.010274         5.051188
 H         1.250677        -2.029174         1.800167
 H         0.385081        -2.673008         3.257725
 H        -1.835197        -1.140781         2.917699
 H        -1.597189        -0.666760         0.532191
 H        -1.498237         0.856288         1.550407
 H         0.210826         0.955712        -1.189247
 H         1.983690         1.431496        -0.197793
 H         2.165227         0.672587         2.048230
 H         0.629152         1.549908         2.589034
