19
Iteration:  2677
 O         0.350898         0.183724         4.471245
 C         0.275760        -0.493920         3.259825
 C         0.035912        -1.926348         3.017765
 C        -0.994441        -0.973985         2.489702
 C        -0.950482        -0.439113         1.051096
 C         0.462866         0.179334         0.874880
 C         0.818563         1.219999        -0.160185
 O         1.326197        -0.105250        -0.211725
 C         1.148920         0.317238         2.220103
 H         0.388348        -0.502844         5.198009
 H         0.729759        -2.407575         2.313895
 H        -0.364407        -2.531376         3.899956
 H        -1.911481        -0.882453         3.012947
 H        -1.231962        -1.088290         0.221262
 H        -1.553229         0.396605         0.965927
 H        -0.020467         1.351958        -0.865709
 H         1.620514         2.019969         0.007781
 H         2.145288        -0.083793         2.183127
 H         1.309833         1.309472         2.586589
