19
Iteration:  1878charge 0 multiplicity 1
 O         0.099566        -0.163659         4.569043
 C         0.327124        -0.426849         3.173316
 C         0.403344        -1.808231         2.670861
 C        -0.882711        -0.914171         2.448983
 C        -1.008319        -0.108518         1.219590
 C         0.397640         0.376538         0.917087
 C         0.947825         0.897723        -0.335131
 O         1.148869        -0.476473         0.018211
 C         1.064480         0.694338         2.312753
 H         0.908974        -0.167451         5.083853
 H         0.915751        -2.003767         1.764893
 H         0.179049        -2.612336         3.337575
 H        -1.641885        -1.221394         3.179555
 H        -1.415185        -0.426421         0.262212
 H        -1.711285         0.709980         1.335914
 H         0.336055         1.177862        -1.275653
 H         1.798879         1.577606        -0.275659
 H         2.205924         0.403940         2.307221
 H         0.950707         1.688281         2.721335
