19
Iteration:   182charge 0 multiplicity 1
 O         0.286361         0.072327         4.491600
 C         0.314072        -0.461946         3.112309
 C         0.132588        -1.950855         2.721618
 C        -0.946787        -0.891793         2.522138
 C        -0.981305        -0.190432         1.114711
 C         0.432265         0.279271         0.951165
 C         0.813402         1.001926        -0.256939
 O         1.362526        -0.387350         0.086083
 C         1.070593         0.518286         2.262325
 H         1.156793        -0.127154         4.931182
 H         0.404478        -2.364050         1.770352
 H        -0.026514        -2.752799         3.343549
 H        -1.857738        -0.828912         3.117472
 H        -1.335784        -0.753469         0.225225
 H        -1.634367         0.739146         1.319263
 H        -0.127259         1.010649        -0.964103
 H         1.586745         1.727291        -0.173353
 H         2.179435         0.509748         2.260002
 H         0.764558         1.647671         2.526834
