19
Iteration:  1178
 O         0.139424        -0.188946         4.645265
 C         0.255020        -0.329600         3.260015
 C         0.328808        -1.738880         2.736355
 C        -0.916898        -0.887644         2.467872
 C        -1.001866        -0.131674         1.179540
 C         0.504044         0.302301         0.924770
 C         0.964425         0.963331        -0.335007
 O         1.118354        -0.444404        -0.144138
 C         1.092706         0.521308         2.297847
 H         1.031453        -0.050702         5.034392
 H         0.915403        -2.019592         1.939265
 H         0.095319        -2.500597         3.466487
 H        -1.791610        -1.111610         3.006769
 H        -1.414631        -0.601466         0.186225
 H        -1.747550         0.645912         1.305552
 H         0.370195         1.312487        -1.183878
 H         1.919163         1.393840        -0.200128
 H         2.219295         0.421942         2.353620
 H         1.057437         1.667731         2.423267
