19
Iteration:  3872charge 0 multiplicity 1
 O         0.204912         0.036976         4.601829
 C         0.330672        -0.426409         3.290169
 C         0.263106        -1.891794         2.954020
 C        -0.953927        -0.921094         2.625043
 C        -0.916109        -0.574298         1.094623
 C         0.403307         0.190192         0.818709
 C         0.719195         1.218054        -0.218210
 O         1.360981        -0.101686        -0.295458
 C         1.067755         0.400964         2.171698
 H         1.128820         0.198121         4.801277
 H         0.610909        -2.475563         2.129281
 H         0.242013        -2.364442         3.841012
 H        -1.827834        -0.830511         3.227359
 H        -1.354213        -1.316924         0.359503
 H        -1.771101         0.175268         1.027109
 H        -0.048283         1.370988        -1.006170
 H         1.332833         2.039055         0.049215
 H         2.146567         0.219249         2.108036
 H         1.024636         1.499760         2.447651
