19
Iteration:  4360charge 0 multiplicity 1
 O         0.269119        -0.050979         4.576145
 C         0.362316        -0.416838         3.165869
 C         0.406806        -1.888772         2.826821
 C        -0.824028        -0.971734         2.497119
 C        -1.066457        -0.391188         1.111760
 C         0.348544         0.296772         0.929028
 C         0.786895         1.070218        -0.313953
 O         1.211905        -0.281884        -0.064242
 C         0.998931         0.601319         2.279552
 H         0.836390         0.668140         4.886500
 H         1.150716        -2.296282         2.065707
 H         0.250658        -2.604866         3.619278
 H        -1.772854        -1.211100         2.988670
 H        -1.263381        -1.114149         0.392565
 H        -1.911797         0.349025         1.249046
 H         0.226353         1.105437        -1.185855
 H         1.459352         1.920302        -0.282957
 H         2.133946         0.717904         2.256435
 H         0.542336         1.612633         2.590538
