19
Iteration:  3817
 O         0.388635        -0.029915         4.592049
 C         0.285324        -0.463194         3.293146
 C         0.251343        -1.893019         2.885869
 C        -0.909373        -0.972743         2.475877
 C        -0.945614        -0.391940         1.082081
 C         0.420942         0.333345         0.897760
 C         0.702182         1.065047        -0.364508
 O         1.247034        -0.224207        -0.087855
 C         1.103333         0.580722         2.274634
 H        -0.419625         0.492001         4.840564
 H         0.974805        -2.366361         2.268499
 H         0.007131        -2.656320         3.529096
 H        -1.863741        -1.001938         2.933887
 H        -0.936668        -1.263757         0.375377
 H        -1.859121         0.235175         1.048916
 H        -0.005702         1.251193        -1.179602
 H         1.481905         1.798761        -0.399037
 H         2.142444         0.300434         2.132003
 H         0.925169         1.603204         2.572721
