19
Iteration:   955
 O         0.157681         0.027748         4.639638
 C         0.318381        -0.433087         3.315309
 C         0.145097        -1.887644         2.908901
 C        -0.899643        -0.835746         2.528856
 C        -1.002055        -0.345664         1.108297
 C         0.423755         0.269767         0.853337
 C         0.944264         1.116807        -0.256262
 O         1.229599        -0.269425        -0.330029
 C         1.155734         0.403719         2.265492
 H         0.748020        -0.617981         4.987428
 H         0.745510        -2.382217         2.114330
 H        -0.018659        -2.672977         3.744613
 H        -1.777268        -0.780819         3.063594
 H        -1.281332        -1.151134         0.407211
 H        -1.620937         0.552996         0.924916
 H         0.278453         1.510905        -0.973699
 H         1.878931         1.595351         0.026931
 H         2.351753         0.348581         2.121148
 H         0.971047         1.435452         2.660843
