19
Iteration:  4107charge 0 multiplicity 1
 O         0.490973        -0.058635         4.581913
 C         0.302016        -0.352719         3.165570
 C         0.446190        -1.749829         2.710471
 C        -0.897533        -1.110405         2.432897
 C        -1.036344        -0.356676         1.132362
 C         0.290171         0.319558         0.915047
 C         0.827250         0.913683        -0.274801
 O         1.243610        -0.389458        -0.015595
 C         0.851347         0.844309         2.337835
 H        -0.123888        -0.553084         5.218603
 H         1.033283        -2.208576         1.785604
 H         0.420057        -2.425802         3.613465
 H        -1.849706        -1.450816         2.835557
 H        -1.356809        -0.845183         0.210183
 H        -1.942247         0.399069         1.228239
 H         0.280074         1.115523        -1.243435
 H         1.491151         1.737897         0.021894
 H         1.954878         0.918128         2.292456
 H         0.459708         1.808744         2.668946
