19
Iteration:  1746charge 0 multiplicity 1
 O         0.421763         0.023070         4.562643
 C         0.273798        -0.466415         3.225802
 C         0.049116        -1.857268         2.928791
 C        -0.970696        -0.954270         2.374054
 C        -0.950682        -0.309069         1.027400
 C         0.372624         0.361451         0.939717
 C         0.822984         1.079355        -0.255156
 O         1.395544        -0.256423        -0.084950
 C         1.051880         0.433482         2.280716
 H         0.538021        -0.731861         5.132003
 H         0.589310        -2.583432         2.274564
 H        -0.463374        -2.497013         3.660637
 H        -1.852532        -0.753202         2.976216
 H        -1.090794        -1.026054         0.176320
 H        -1.830831         0.615200         0.895763
 H         0.048153         1.085337        -1.059334
 H         1.579417         1.904211        -0.141039
 H         2.218050         0.300648         2.201785
 H         0.915583         1.402745         2.706640
