19
Iteration:  3802
 O         0.310813        -0.105410         4.637532
 C         0.347440        -0.342633         3.198629
 C         0.311574        -1.832587         2.812000
 C        -0.919990        -0.938511         2.587113
 C        -0.985270        -0.365208         1.197212
 C         0.390601         0.316771         0.888453
 C         0.780572         1.028777        -0.355132
 O         1.318596        -0.276648        -0.164495
 C         1.016327         0.574164         2.222070
 H        -0.594936        -0.106331         4.903606
 H         0.873151        -2.188938         1.914682
 H         0.154180        -2.459511         3.833176
 H        -1.783336        -1.414663         3.121358
 H        -1.329903        -1.076723         0.352278
 H        -1.728024         0.471508         1.055727
 H         0.019615         1.043454        -1.111448
 H         1.434885         1.931921        -0.360267
 H         2.129726         0.383841         2.218459
 H         0.975992         1.663261         2.624026
