19
Iteration:  2435charge 0 multiplicity 1
 O         0.268021        -0.111937         4.555236
 C         0.268593        -0.401157         3.202789
 C         0.156732        -1.808558         2.802251
 C        -1.015463        -0.808361         2.595243
 C        -0.960083        -0.336249         1.134364
 C         0.435127         0.222015         0.895058
 C         0.979512         1.066516        -0.176798
 O         1.242550        -0.320250        -0.149669
 C         1.040542         0.559584         2.186260
 H         1.004971        -0.600996         4.894795
 H         0.715028        -2.224961         2.051080
 H         0.220958        -2.443412         3.650089
 H        -1.972182        -0.948296         3.021810
 H        -0.972492        -1.166745         0.375836
 H        -1.740667         0.478514         0.809174
 H         0.356799         1.501859        -0.952930
 H         1.780632         1.759191         0.091962
 H         2.129125         0.404716         2.114393
 H         0.948029         1.651926         2.507961
