19
Iteration:  4565charge 0 multiplicity 1
 O         0.148454        -0.007533         4.604939
 C         0.307938        -0.402297         3.245270
 C         0.429331        -1.916488         2.816684
 C        -0.786653        -1.066055         2.540938
 C        -0.935452        -0.438275         1.198420
 C         0.402279         0.310830         0.857715
 C         0.650825         1.092178        -0.306068
 O         1.226781        -0.220158        -0.161166
 C         1.062372         0.606978         2.241258
 H         0.880191         0.621004         4.832221
 H         1.116010        -2.126717         2.059882
 H         0.084657        -2.542488         3.639045
 H        -1.682938        -1.550589         2.933515
 H        -1.187677        -1.082333         0.295332
 H        -1.684077         0.320279         1.263715
 H        -0.188206         1.298934        -0.985158
 H         1.499760         1.868927        -0.373730
 H         2.113763         0.373056         2.282288
 H         0.977720         1.642956         2.546250
