19
Iteration:   494charge 0 multiplicity 1
 O         0.175719         0.016768         4.538666
 C         0.345841        -0.457231         3.164371
 C         0.352493        -1.910378         2.689050
 C        -0.842101        -0.957286         2.439397
 C        -1.021125        -0.081010         1.183025
 C         0.397419         0.441341         0.979075
 C         0.906917         0.860616        -0.386997
 O         1.129900        -0.459309         0.055926
 C         1.050666         0.624277         2.315690
 H         0.825940        -0.503538         5.059782
 H         1.133565        -2.093471         1.978386
 H         0.212646        -2.739771         3.447447
 H        -1.862262        -1.268123         2.812320
 H        -1.366430        -0.639243         0.273272
 H        -1.643081         0.762653         1.402991
 H         0.274293         1.024382        -1.254146
 H         1.782740         1.659811        -0.349086
 H         2.193301         0.492453         2.318011
 H         0.774891         1.564744         2.919977
