19
Iteration:  1688charge 0 multiplicity 1
 O         0.103699         0.137000         4.548413
 C         0.349053        -0.425036         3.272469
 C         0.198806        -1.923327         2.885602
 C        -0.886311        -0.852178         2.490402
 C        -0.934164        -0.331307         1.092707
 C         0.513857         0.132476         0.878747
 C         0.817791         1.148673        -0.084559
 O         1.176195        -0.221718        -0.345051
 C         1.291301         0.303968         2.307881
 H        -0.017339        -0.558374         5.221368
 H         0.649669        -2.385062         2.018441
 H        -0.208952        -2.573473         3.699486
 H        -1.825524        -1.021471         2.944854
 H        -1.402554        -0.956064         0.342023
 H        -1.558430         0.738522         0.871304
 H         0.022248         1.592137        -0.665434
 H         1.668645         1.902739         0.045613
 H         2.333933         0.030662         2.287863
 H         1.163023         1.375942         2.576464
