19
Iteration:  3211charge 0 multiplicity 1
 O         0.167064         0.048187         4.485584
 C         0.386597        -0.472993         3.237075
 C         0.139892        -2.013308         2.872906
 C        -0.910940        -0.915485         2.565637
 C        -0.948027        -0.327163         1.161197
 C         0.406349         0.355417         0.907575
 C         0.844680         1.133075        -0.301156
 O         1.274839        -0.205478        -0.091979
 C         1.109162         0.396383         2.227622
 H         0.964524         0.155244         5.035295
 H         0.627407        -2.424134         1.953176
 H         0.151211        -2.693825         3.731449
 H        -1.851460        -0.952487         3.007499
 H        -1.301733        -0.988029         0.345921
 H        -1.686557         0.429976         1.049072
 H         0.062798         1.140039        -1.092372
 H         1.743069         1.772936        -0.375920
 H         2.161434         0.175929         2.144584
 H         1.226764         1.458637         2.577739
