19
Iteration:   834
 O         0.202864        -0.004273         4.574812
 C         0.340816        -0.401803         3.277928
 C         0.362455        -1.797490         2.676131
 C        -0.934537        -0.948496         2.380927
 C        -0.997095        -0.151409         1.121876
 C         0.379078         0.361034         0.921676
 C         0.939196         0.989042        -0.296987
 O         1.087870        -0.480258         0.003779
 C         1.093737         0.536013         2.368910
 H         0.618616        -0.570264         5.268836
 H         1.242619        -1.941789         1.895991
 H         0.198223        -2.777033         3.130421
 H        -1.852204        -1.091823         3.019598
 H        -1.307673        -0.801480         0.249482
 H        -1.816162         0.663728         1.239396
 H         0.322950         1.302484        -1.174601
 H         1.941837         1.429371        -0.177738
 H         2.218650         0.301692         2.062401
 H         1.072002         1.618373         2.552560
