19
Iteration:  3633
 O         0.288341        -0.046354         4.481587
 C         0.302100        -0.450047         3.239890
 C         0.213212        -1.885933         2.889522
 C        -0.885151        -0.940709         2.494858
 C        -0.899185        -0.339195         1.127115
 C         0.421413         0.306033         0.919030
 C         0.728738         1.041253        -0.298393
 O         1.298822        -0.274071        -0.077828
 C         1.064428         0.513043         2.277180
 H        -0.004119         0.870409         4.593584
 H         0.823047        -2.129857         2.058461
 H         0.112243        -2.689542         3.641483
 H        -1.836316        -1.091982         3.069678
 H        -1.297195        -0.892879         0.330924
 H        -1.545618         0.568712         1.211889
 H         0.035579         1.282089        -1.160036
 H         1.470767         1.905169        -0.285798
 H         2.135629         0.267842         2.336545
 H         0.876670         1.518999         2.676591
