19
Iteration:  1925
 O         0.363744        -0.058068         4.655501
 C         0.275294        -0.418741         3.238684
 C         0.046873        -1.894095         2.780430
 C        -0.942439        -0.803384         2.501016
 C        -0.961062        -0.299975         1.060876
 C         0.451138         0.245664         0.887583
 C         0.795676         1.045183        -0.322986
 O         1.408652        -0.294891        -0.075743
 C         1.043243         0.532412         2.309317
 H         0.853280        -0.805244         5.022988
 H         0.654663        -2.094572         1.920680
 H        -0.128479        -2.635289         3.537823
 H        -1.866670        -0.882548         3.013093
 H        -1.307137        -1.104763         0.368435
 H        -1.837688         0.387824         0.660862
 H         0.210588         1.150060        -1.197698
 H         1.348152         1.983227        -0.303493
 H         2.109227         0.646649         2.331376
 H         0.616594         1.542256         2.640622
