19
Iteration:   990charge 0 multiplicity 1
 O         0.152867         0.091492         4.528441
 C         0.234098        -0.420925         3.180845
 C         0.242804        -1.898939         2.908472
 C        -0.928730        -0.983747         2.389463
 C        -0.852330        -0.146429         1.159964
 C         0.552284         0.258765         0.954950
 C         0.799777         1.089014        -0.248279
 O         1.127146        -0.322829        -0.164821
 C         1.216667         0.349618         2.302582
 H         0.407628        -0.556022         5.154812
 H         0.959547        -2.098361         2.142951
 H         0.042724        -2.627653         3.684108
 H        -1.954581        -1.156712         2.807443
 H        -1.421271        -0.714538         0.326395
 H        -1.461497         0.712147         1.438938
 H         0.090347         1.540852        -0.953347
 H         1.765242         1.592584        -0.477495
 H         2.365220         0.146694         2.191476
 H         1.051413         1.321144         2.809513
