19
Iteration:  2060
 O         0.255731         0.126529         4.500209
 C         0.249396        -0.533056         3.233832
 C         0.093678        -1.966353         2.924829
 C        -1.011700        -0.958714         2.468702
 C        -0.948581        -0.343229         1.161730
 C         0.477104         0.393525         0.876582
 C         0.870884         1.183103        -0.297989
 O         1.295748        -0.229654        -0.172803
 C         1.157057         0.289325         2.284415
 H         1.063015         0.051654         5.094986
 H         0.802692        -2.331286         2.148161
 H        -0.042003        -2.540406         3.879947
 H        -1.944152        -1.075338         2.949829
 H        -1.101758        -1.067532         0.330645
 H        -1.733410         0.523659         1.354354
 H         0.182798         1.481409        -1.039445
 H         1.544890         1.952254        -0.104299
 H         2.164860        -0.042937         2.357990
 H         1.087941         1.351249         2.678552
