19
Iteration:    99
 O         0.167169        -0.006463         4.535878
 C         0.351348        -0.415252         3.212735
 C         0.284280        -1.893869         2.657961
 C        -0.949439        -0.902825         2.493076
 C        -0.968829        -0.100692         1.203736
 C         0.461836         0.368789         0.947387
 C         0.867469         0.884021        -0.318979
 O         1.212297        -0.455407        -0.056310
 C         1.078916         0.588611         2.357401
 H         0.516238        -0.627541         5.159795
 H         0.950141        -1.982733         1.770901
 H         0.311622        -2.680498         3.382669
 H        -1.806904        -0.992063         3.204369
 H        -1.337445        -0.568218         0.260687
 H        -1.553159         0.738127         1.303019
 H         0.118459         1.171019        -1.012693
 H         1.696758         1.475673        -0.506150
 H         2.124090         0.370083         2.210144
 H         0.902545         1.562148         2.639784
