19
Iteration:  2804
 O         0.398825         0.027415         4.577718
 C         0.232142        -0.430424         3.295504
 C        -0.007683        -1.931323         2.964641
 C        -1.027770        -0.870164         2.546525
 C        -0.874320        -0.529808         1.012893
 C         0.418198         0.225842         0.854720
 C         0.727754         1.211030        -0.244219
 O         1.398236        -0.042802        -0.156397
 C         1.118716         0.244656         2.238797
 H         0.949785         0.811151         4.415702
 H         0.612857        -2.433154         2.274532
 H        -0.146190        -2.403345         3.925680
 H        -2.066725        -0.574753         2.871702
 H        -0.831246        -1.458054         0.368111
 H        -1.739193         0.211464         0.677824
 H         0.273517         1.288608        -1.170187
 H         1.313609         2.044816        -0.060413
 H         2.135275        -0.180917         2.008558
 H         1.209328         1.329556         2.648772
