19
Iteration:  2630charge 0 multiplicity 1
 O         0.174565        -0.200813         4.680450
 C         0.335430        -0.360106         3.212530
 C         0.043494        -1.811160         2.945874
 C        -0.922028        -0.702551         2.494700
 C        -0.839266        -0.448803         1.040349
 C         0.475229         0.271167         0.863926
 C         0.730312         1.103622        -0.300704
 O         1.281915        -0.246794        -0.176047
 C         1.211381         0.485965         2.261640
 H         1.035812        -0.481627         4.969796
 H         0.485986        -2.321581         2.095669
 H        -0.059737        -2.259885         3.889899
 H        -1.998574        -0.698442         2.995345
 H        -0.879559        -1.303653         0.362114
 H        -1.708896         0.115545         0.853756
 H        -0.112719         1.217251        -1.040434
 H         1.659174         1.841645        -0.233916
 H         2.291480         0.439016         2.099032
 H         1.071605         1.579876         2.444129
