19
Iteration:  4634
 O         0.359692        -0.036227         4.618451
 C         0.277305        -0.424426         3.242292
 C         0.451442        -1.890613         2.934398
 C        -0.887836        -1.055203         2.589908
 C        -0.944488        -0.504030         1.063259
 C         0.383843         0.300422         0.865943
 C         0.654062         1.124609        -0.276999
 O         1.272194        -0.148046        -0.191651
 C         0.965881         0.633840         2.258054
 H        -0.459930         0.486775         4.642164
 H         1.045587        -2.171942         1.998584
 H         0.467095        -2.660253         3.687361
 H        -1.828135        -1.166061         3.162262
 H        -0.946322        -1.407808         0.513372
 H        -1.866448         0.073730         0.695986
 H        -0.014568         1.064693        -1.097238
 H         1.333601         1.924301        -0.516850
 H         2.045396         0.387218         2.195182
 H         0.824853         1.630241         2.497240
