19
Iteration:  2648
 O         0.277056        -0.021103         4.621063
 C         0.331168        -0.459718         3.318897
 C        -0.010862        -1.846695         2.927422
 C        -0.992154        -0.826946         2.525859
 C        -0.838547        -0.455589         1.028855
 C         0.533425         0.264110         0.923321
 C         0.761084         1.138480        -0.277875
 O         1.279709        -0.211347        -0.338547
 C         1.145531         0.487911         2.328245
 H         0.826408        -0.579600         5.165597
 H         0.575837        -2.413522         2.170447
 H        -0.371638        -2.523854         3.683570
 H        -1.858131        -0.640599         3.091395
 H        -0.715084        -1.368450         0.401455
 H        -1.617426         0.206349         0.399557
 H        -0.085454         1.284989        -0.960789
 H         1.470004         1.885231        -0.324736
 H         2.228274         0.179022         2.484008
 H         0.989994         1.502439         2.791614
