19
Iteration:  1078
 O         0.485051        -0.241998         4.689668
 C         0.263674        -0.385716         3.241554
 C         0.095340        -1.757908         2.710539
 C        -1.001662        -0.797789         2.464821
 C        -1.004809        -0.176632         1.019579
 C         0.415153         0.290298         0.802596
 C         0.941612         0.943940        -0.312701
 O         1.311545        -0.429910         0.047746
 C         0.873293         0.674200         2.372746
 H         1.427808        -0.189818         4.643322
 H         0.589305        -2.032360         1.819132
 H        -0.101522        -2.508786         3.352514
 H        -1.966770        -1.027274         3.020683
 H        -1.181281        -1.018546         0.239420
 H        -1.676354         0.657593         0.866889
 H         0.381494         1.079091        -1.232399
 H         1.855204         1.453895        -0.350425
 H         2.033251         0.606443         2.320149
 H         0.410124         1.662380         2.669237
