19
Iteration:  2358
 O         0.095365         0.109119         4.435641
 C         0.341903        -0.500304         3.218841
 C         0.184140        -1.937957         2.933669
 C        -0.952191        -0.949313         2.551839
 C        -1.004310        -0.293281         1.182211
 C         0.450753         0.333927         0.930338
 C         0.842410         1.146421        -0.188018
 O         1.259943        -0.228968        -0.229755
 C         1.300104         0.326189         2.226664
 H         0.804245        -0.213542         5.044309
 H         0.670104        -2.497673         2.196636
 H        -0.222948        -2.516420         3.752612
 H        -1.858618        -1.050670         3.047938
 H        -1.242021        -0.901007         0.288005
 H        -1.568818         0.695205         1.181966
 H         0.150052         1.298806        -0.982486
 H         1.633342         1.836592        -0.004090
 H         2.235917        -0.219143         2.101439
 H         1.260941         1.408186         2.529103
