19
Iteration:  4742charge 0 multiplicity 1
 O         0.343672        -0.108037         4.597290
 C         0.333764        -0.376446         3.211460
 C         0.600182        -1.744196         2.733467
 C        -0.755616        -1.129322         2.486177
 C        -0.979447        -0.422514         1.071654
 C         0.292087         0.321398         0.910843
 C         0.708736         0.973470        -0.349763
 O         1.192863        -0.312670        -0.009435
 C         0.804223         0.763381         2.333050
 H        -0.336181         0.602113         4.596935
 H         1.320383        -1.804788         1.926500
 H         0.685076        -2.544361         3.480719
 H        -1.618776        -1.382422         3.110055
 H        -1.317704        -1.095906         0.317491
 H        -1.747323         0.360546         1.184470
 H         0.081164         1.088111        -1.257662
 H         1.422565         1.767336        -0.018994
 H         1.912965         0.748805         2.520324
 H         0.476565         1.777275         2.697845
