19
Iteration:  2393charge 0 multiplicity 1
 O         0.107362         0.018028         4.605392
 C         0.325327        -0.490700         3.254145
 C         0.170648        -1.980163         2.950714
 C        -0.932004        -0.838226         2.482640
 C        -0.826486        -0.165532         1.057608
 C         0.507477         0.362731         0.929655
 C         0.725378         1.079197        -0.320645
 O         1.265407        -0.261171        -0.209198
 C         1.186342         0.304927         2.270212
 H         0.890270        -0.022307         5.190967
 H         0.810601        -2.450221         2.232093
 H        -0.334550        -2.662511         3.623077
 H        -1.801404        -1.195626         2.991542
 H        -1.287506        -0.859742         0.384428
 H        -1.530039         0.734590         1.041249
 H        -0.060181         1.147803        -0.968625
 H         1.315807         1.962409        -0.437493
 H         2.253840        -0.000625         2.239888
 H         1.401195         1.397331         2.592671
