19
Iteration:  1879charge 0 multiplicity 1
 O         0.105350        -0.168376         4.566954
 C         0.313952        -0.419070         3.174196
 C         0.399499        -1.811899         2.676032
 C        -0.882221        -0.912057         2.452550
 C        -1.006912        -0.117441         1.218657
 C         0.398627         0.383904         0.915714
 C         0.942258         0.902522        -0.338296
 O         1.153314        -0.476904         0.011587
 C         1.075721         0.693841         2.317096
 H         0.900417        -0.185042         5.085200
 H         0.888339        -2.008710         1.797165
 H         0.189214        -2.609814         3.345217
 H        -1.624954        -1.216085         3.159859
 H        -1.408293        -0.404425         0.248645
 H        -1.756576         0.702371         1.312638
 H         0.333376         1.146772        -1.252890
 H         1.798412         1.552199        -0.263698
 H         2.185172         0.418058         2.336387
 H         0.960309         1.705804         2.709889
