19
Iteration:  1396charge 0 multiplicity 1
 O         0.261093        -0.116717         4.603255
 C         0.283019        -0.366116         3.184436
 C         0.097744        -1.840522         2.876311
 C        -0.961565        -0.834017         2.492861
 C        -0.947382        -0.286559         1.071032
 C         0.467103         0.315446         0.874857
 C         0.874669         1.063172        -0.307820
 O         1.257203        -0.350166        -0.118632
 C         1.130049         0.514193         2.306364
 H         0.577536        -0.922209         4.983339
 H         0.823504        -2.120983         2.146480
 H         0.116144        -2.399712         3.777494
 H        -1.951409        -0.727776         3.009489
 H        -1.001688        -1.231813         0.407215
 H        -1.724667         0.458172         0.883311
 H         0.084880         1.338790        -1.023574
 H         1.628271         1.934245        -0.110011
 H         2.257803         0.262666         2.319456
 H         1.076338         1.515495         2.597770
