19
Iteration:  3929
 O         0.295606         0.119345         4.490360
 C         0.286370        -0.439599         3.279542
 C         0.281070        -1.966141         2.967650
 C        -0.886519        -1.006726         2.524036
 C        -0.887602        -0.391877         1.106857
 C         0.487421         0.343952         0.927615
 C         0.641154         1.125610        -0.250926
 O         1.221097        -0.175264        -0.281373
 C         1.136405         0.411290         2.306322
 H        -0.213773        -0.439252         5.125993
 H         1.032859        -2.294550         2.358577
 H        -0.097201        -2.585401         3.746803
 H        -1.903978        -1.234389         3.004887
 H        -0.672917        -1.220498         0.326952
 H        -1.798610         0.235344         0.812592
 H        -0.263379         1.218604        -0.884991
 H         1.227164         2.083631        -0.234694
 H         2.204094         0.200878         2.159330
 H         1.031394         1.447139         2.624598
