19
Iteration:  3949charge 0 multiplicity 1
 O         0.319019         0.117335         4.598335
 C         0.395401        -0.449748         3.265679
 C         0.260806        -1.916340         2.926701
 C        -0.874083        -1.013109         2.522064
 C        -0.956908        -0.474736         1.100344
 C         0.404644         0.196602         0.813049
 C         0.694648         1.161904        -0.274168
 O         1.283963        -0.109139        -0.204404
 C         1.063667         0.442130         2.247822
 H        -0.532383        -0.315584         4.927498
 H         0.778078        -2.251204         2.077586
 H         0.170342        -2.543935         3.752965
 H        -1.801053        -1.003493         3.172927
 H        -1.507547        -1.310033         0.431697
 H        -1.705110         0.434569         1.150734
 H         0.006396         1.337826        -1.123100
 H         1.438770         1.930121        -0.166361
 H         2.161438         0.151730         2.278356
 H         1.002793         1.510573         2.695534
