19
Iteration:   572charge 0 multiplicity 1
 O         0.461972        -0.174205         4.604954
 C         0.240458        -0.356824         3.251571
 C         0.113508        -1.778105         2.772498
 C        -1.030919        -0.847307         2.496949
 C        -0.980256        -0.303170         1.042572
 C         0.384976         0.276535         0.930537
 C         0.881357         1.001720        -0.273709
 O         1.307980        -0.356224        -0.110779
 C         1.019272         0.559543         2.351789
 H         0.902702         0.698028         4.827626
 H         0.788948        -2.125779         1.960669
 H        -0.250625        -2.438396         3.483095
 H        -2.018493        -0.910479         2.966565
 H        -1.021711        -1.200072         0.380631
 H        -1.665312         0.326487         0.572422
 H         0.344549         1.119951        -1.238523
 H         1.600285         1.762853        -0.003678
 H         2.133925         0.375103         2.462017
 H         0.834243         1.665223         2.544749
