19
Iteration:    33
 O         0.444267        -0.254157         4.642135
 C         0.225629        -0.297892         3.253754
 C         0.085250        -1.759364         2.671223
 C        -0.966094        -0.721797         2.580299
 C        -1.013843        -0.393629         1.094034
 C         0.457818         0.191573         0.887142
 C         0.989694         0.979538        -0.333095
 O         1.330572        -0.354602        -0.032409
 C         0.849517         0.733206         2.276134
 H         1.368401        -0.648694         4.662285
 H         0.617994        -2.056627         1.774606
 H        -0.055877        -2.381566         3.510409
 H        -1.923667        -0.842534         3.073953
 H        -1.294930        -1.283472         0.525263
 H        -1.641416         0.309412         0.794476
 H         0.355458         1.356101        -1.113542
 H         1.810482         1.531663        -0.225885
 H         1.904623         0.720664         2.375765
 H         0.434934         1.675455         2.444681
