19
Iteration:  3004charge 0 multiplicity 1
 O         0.424461        -0.066979         4.561604
 C         0.298314        -0.515720         3.217339
 C         0.174221        -1.912997         2.715727
 C        -0.960878        -0.870798         2.464213
 C        -0.985559        -0.181809         1.087250
 C         0.424533         0.408016         0.901007
 C         0.882841         0.935978        -0.477892
 O         1.358666        -0.395259         0.082282
 C         0.854402         0.646528         2.437777
 H         0.935596        -0.759853         5.070107
 H         0.869946        -2.078223         1.857287
 H        -0.103075        -2.700916         3.449341
 H        -1.904953        -0.886311         3.101337
 H        -1.605973        -0.760829         0.297634
 H        -1.671450         0.729608         1.061265
 H         0.124655         1.050268        -1.230548
 H         1.729441         1.642266        -0.597197
 H         1.938204         0.857117         2.387541
 H         0.418229         1.612066         2.884808
