19
Iteration:  3876
 O         0.195914         0.051144         4.605153
 C         0.356968        -0.437745         3.282461
 C         0.302410        -1.898633         2.945855
 C        -0.967547        -0.897622         2.600054
 C        -0.933606        -0.563729         1.120284
 C         0.413398         0.182889         0.829730
 C         0.699495         1.203279        -0.228295
 O         1.364743        -0.090056        -0.299256
 C         1.040344         0.394979         2.171734
 H         1.116250         0.068538         5.008644
 H         0.641495        -2.464168         2.085086
 H         0.143797        -2.352337         3.994154
 H        -1.948001        -0.810729         3.186069
 H        -1.170512        -1.273645         0.379941
 H        -1.739744         0.127824         0.971326
 H        -0.110817         1.413710        -0.962624
 H         1.479027         1.979873         0.055608
 H         2.095428         0.160362         1.992986
 H         1.090770         1.401385         2.450149
