19
Iteration:  1120charge 0 multiplicity 1
 O         0.252844        -0.151467         4.433849
 C         0.372442        -0.412195         3.075146
 C         0.265761        -1.871593         2.645305
 C        -0.956822        -0.831889         2.495519
 C        -1.059204        -0.129810         1.183709
 C         0.438508         0.416168         0.972751
 C         0.887784         0.913993        -0.317702
 O         1.282469        -0.517534         0.183022
 C         1.011728         0.705040         2.310869
 H         0.699921        -0.674213         5.125455
 H         0.643800        -2.280576         1.701019
 H         0.203400        -2.555506         3.441741
 H        -1.915719        -0.881130         3.097359
 H        -1.514685        -0.551072         0.237914
 H        -1.559861         0.796426         1.521691
 H         0.267174         0.997143        -1.225734
 H         1.723312         1.625527        -0.261259
 H         2.152670         0.501935         2.083796
 H         0.719246         1.666026         2.747975
