19
Iteration:  2728
 O         0.226572         0.276965         4.529290
 C         0.263134        -0.490346         3.292072
 C         0.092699        -1.991823         2.994093
 C        -0.917728        -0.978010         2.498584
 C        -0.875035        -0.441765         1.099257
 C         0.544510         0.270730         0.901303
 C         0.816490         1.261334        -0.170134
 O         1.146010        -0.127938        -0.414911
 C         1.303447         0.153229         2.320853
 H        -0.643469        -0.000347         4.879934
 H         0.655992        -2.367234         2.194105
 H        -0.160808        -2.594629         3.868791
 H        -1.998098        -0.958935         2.972897
 H        -0.913478        -1.237043         0.307451
 H        -1.698077         0.326745         0.873747
 H         0.043923         1.708241        -0.796722
 H         1.647823         1.966741         0.154763
 H         2.297392        -0.339101         2.400008
 H         1.585703         1.147194         2.793905
