19
Iteration:  2255charge 0 multiplicity 1
 O         0.301286        -0.028555         4.528839
 C         0.296417        -0.489741         3.178067
 C         0.111491        -1.915953         2.771296
 C        -1.003657        -0.873512         2.527748
 C        -0.890331        -0.206591         1.194000
 C         0.475882         0.372570         0.962226
 C         0.745252         0.914649        -0.375737
 O         1.365382        -0.283512        -0.037844
 C         1.096166         0.579826         2.306489
 H         0.738304        -0.772636         5.010532
 H         0.619271        -2.140143         1.808939
 H        -0.098912        -2.734181         3.486237
 H        -2.005920        -1.049698         2.953053
 H        -1.267907        -0.815831         0.356088
 H        -1.546055         0.629783         1.083711
 H         0.000365         0.888794        -1.222605
 H         1.468155         1.793600        -0.451259
 H         2.138021         0.551529         2.386456
 H         0.825792         1.494914         2.691632
