19
Iteration:  4702
 O         0.320045         0.035695         4.547959
 C         0.344324        -0.394543         3.212046
 C         0.500597        -1.852620         2.800089
 C        -0.847012        -1.107629         2.530534
 C        -0.985768        -0.522542         1.152162
 C         0.298457         0.305639         0.916965
 C         0.709492         1.065508        -0.407678
 O         1.287109        -0.205936        -0.079315
 C         0.870899         0.706726         2.342905
 H         0.212993        -0.669200         5.221514
 H         1.027070        -2.116854         1.875656
 H         0.645401        -2.656587         3.598338
 H        -1.736637        -1.211631         3.142551
 H        -1.138280        -1.152845         0.286083
 H        -1.839965         0.225398         1.255470
 H         0.164142         1.096288        -1.386492
 H         1.229475         1.947949        -0.270314
 H         1.953225         0.633794         2.207882
 H         0.586149         1.651900         2.730228
