19
Iteration:  3108
 O         0.293144         0.035909         4.406322
 C         0.376595        -0.456325         3.150621
 C         0.129307        -1.935376         3.046766
 C        -0.976984        -0.904709         2.503413
 C        -1.004520        -0.337208         1.100618
 C         0.423444         0.266090         0.900053
 C         0.815490         1.175020        -0.190548
 O         1.336039        -0.205767        -0.155493
 C         1.145713         0.408471         2.229625
 H        -0.200871        -0.549849         5.032152
 H         0.877601        -2.540149         2.537970
 H        -0.206100        -2.486017         3.980667
 H        -1.860711        -1.170615         3.167906
 H        -1.188839        -0.875389         0.228753
 H        -1.673309         0.483955         1.260942
 H         0.037930         1.172409        -1.025391
 H         1.462831         2.126905        -0.075964
 H         2.169407         0.054275         1.976347
 H         1.120802         1.342819         2.728934
