19
Iteration:  1900charge 0 multiplicity 1
 O         0.215187        -0.203008         4.643860
 C         0.285137        -0.353158         3.192330
 C         0.232280        -1.780689         2.761339
 C        -0.934426        -0.884064         2.445599
 C        -0.922649        -0.205525         1.115082
 C         0.470829         0.366090         0.949701
 C         0.886791         0.924469        -0.364928
 O         1.220129        -0.387396        -0.056774
 C         1.025358         0.636813         2.329409
 H         1.029997        -0.676363         4.958702
 H         0.897793        -2.093526         2.010763
 H         0.113597        -2.348945         3.665265
 H        -1.864475        -1.034485         3.009290
 H        -1.175129        -0.931454         0.324410
 H        -1.689111         0.545672         0.983028
 H         0.004135         1.227191        -1.089909
 H         1.594517         1.704807        -0.633242
 H         2.189594         0.394410         2.216940
 H         0.915110         1.631817         2.747562
