19
Iteration:  4859
 O         0.275596        -0.112979         4.535143
 C         0.360568        -0.357999         3.149950
 C         0.583231        -1.817112         2.878328
 C        -0.769649        -1.032055         2.483977
 C        -0.944164        -0.566637         1.137496
 C         0.300477         0.232434         0.831916
 C         0.630393         1.035677        -0.235838
 O         1.274531        -0.164752        -0.029879
 C         0.785422         0.757209         2.264512
 H         0.849710         0.644754         4.764180
 H         1.144285        -2.204516         2.069758
 H         0.523195        -2.476513         3.761368
 H        -1.611426        -1.544023         2.953991
 H        -1.289783        -1.426991         0.358631
 H        -1.768937         0.175226         1.001604
 H        -0.036573         1.171930        -1.124364
 H         1.241365         1.979876        -0.027335
 H         1.864111         0.748377         2.310710
 H         0.434010         1.778887         2.448227
