19
Iteration:    13charge 0 multiplicity 1
 O         0.321842        -0.183679         4.627582
 C         0.371887        -0.382484         3.227798
 C         0.187523        -1.736766         2.707161
 C        -0.998003        -0.775647         2.521946
 C        -1.005570        -0.285848         1.068329
 C         0.389324         0.277403         0.951462
 C         0.907143         0.972356        -0.214801
 O         1.304831        -0.464882        -0.112773
 C         0.967090         0.657248         2.286635
 H         1.168157        -0.414590         5.022046
 H         0.678065        -2.006570         1.730170
 H         0.105276        -2.537241         3.409501
 H        -1.950078        -0.857778         3.061563
 H        -1.021607        -1.030232         0.280324
 H        -1.795068         0.527792         0.779884
 H         0.306033         1.031628        -1.102590
 H         1.604474         1.897103        -0.031256
 H         2.085119         0.805952         2.284299
 H         0.466508         1.660157         2.476249
