19
Iteration:   435
 O         0.390662        -0.101619         4.615249
 C         0.379509        -0.312887         3.177723
 C         0.159319        -1.840703         2.776839
 C        -0.929661        -0.896987         2.534321
 C        -1.034240        -0.257186         1.142120
 C         0.434999         0.338729         0.890063
 C         0.933418         0.959696        -0.362743
 O         1.256722        -0.398575        -0.045478
 C         0.945099         0.630049         2.259214
 H        -0.221496        -0.794093         4.829379
 H         0.842192        -2.225493         1.971982
 H         0.020662        -2.572288         3.550830
 H        -1.712089        -0.919554         3.245953
 H        -1.212835        -0.953952         0.363063
 H        -1.811413         0.517344         0.950915
 H         0.127537         1.056132        -1.246723
 H         1.851669         1.658300        -0.220092
 H         2.018426         0.672118         2.399130
 H         0.592695         1.540382         2.754236
