19
Iteration:  1770
 O         0.378617        -0.103702         4.507274
 C         0.215429        -0.438280         3.196917
 C         0.046151        -1.898895         2.779243
 C        -1.046766        -0.828181         2.574211
 C        -0.928504        -0.311216         1.149060
 C         0.538058         0.231970         0.934165
 C         0.778299         1.064543        -0.351853
 O         1.435536        -0.264197        -0.040975
 C         1.029444         0.638603         2.293249
 H         0.653546        -0.867363         5.072250
 H         0.657334        -2.391447         1.989733
 H        -0.019255        -2.601965         3.560183
 H        -2.070518        -0.804239         3.156737
 H        -1.161236        -1.110415         0.345428
 H        -1.598713         0.736479         0.874013
 H         0.066652         0.833359        -1.189174
 H         1.526864         1.779416        -0.418816
 H         2.131164         0.546628         2.508244
 H         0.716785         1.690875         2.466257
