19
Iteration:   954
 O         0.160293         0.021695         4.631887
 C         0.322772        -0.435795         3.318085
 C         0.139349        -1.878224         2.910512
 C        -0.908890        -0.836217         2.541695
 C        -1.001401        -0.356601         1.106562
 C         0.421359         0.274104         0.850484
 C         0.950021         1.130126        -0.260260
 O         1.233048        -0.276238        -0.321724
 C         1.156846         0.401937         2.259529
 H         0.772283        -0.609226         4.996259
 H         0.743861        -2.375254         2.096335
 H        -0.026958        -2.667687         3.739709
 H        -1.796776        -0.795543         3.074763
 H        -1.263485        -1.124551         0.410528
 H        -1.618730         0.553966         0.900231
 H         0.272048         1.503595        -0.967451
 H         1.846445         1.625293         0.035421
 H         2.337420         0.346138         2.123372
 H         0.978494         1.452442         2.627461
