19
Iteration:  4247charge 0 multiplicity 1
 O         0.320108         0.169496         4.592725
 C         0.313246        -0.418168         3.231630
 C         0.311200        -1.904502         2.953589
 C        -0.837584        -1.120442         2.450869
 C        -0.919314        -0.467217         1.076573
 C         0.411553         0.255954         0.882106
 C         0.652653         1.142481        -0.174773
 O         1.165669        -0.120983        -0.173914
 C         1.130321         0.458464         2.187061
 H        -0.586799        -0.186383         4.811931
 H         1.113335        -2.378796         2.388778
 H         0.163467        -2.592255         3.867403
 H        -1.682260        -1.447022         3.039802
 H        -0.944195        -1.233216         0.197914
 H        -1.780406         0.221513         0.936351
 H        -0.091203         1.331595        -0.990953
 H         1.432829         1.850947        -0.230074
 H         2.204406         0.236444         1.967637
 H         1.162397         1.499347         2.747822
