19
Iteration:  4254charge 0 multiplicity 1
 O         0.310677         0.147632         4.571769
 C         0.351621        -0.455801         3.261860
 C         0.331371        -1.947419         2.966465
 C        -0.871721        -1.097281         2.480263
 C        -0.879891        -0.423596         1.077080
 C         0.358299         0.329824         0.938062
 C         0.617689         1.154982        -0.271579
 O         1.221730        -0.162584        -0.225218
 C         1.107863         0.446988         2.246917
 H        -0.492634        -0.076512         5.064708
 H         1.174569        -2.233256         2.342323
 H         0.070963        -2.405269         3.843226
 H        -1.792344        -1.389671         2.978572
 H        -0.800278        -1.196655         0.251595
 H        -1.785173         0.073910         0.742981
 H        -0.212995         1.290750        -0.953431
 H         1.423980         1.973875        -0.101675
 H         2.112510         0.101210         2.079041
 H         1.110966         1.442806         2.539840
