19
Iteration:  4779charge 0 multiplicity 1
 O         0.197489        -0.152495         4.593355
 C         0.349554        -0.339633         3.201278
 C         0.605027        -1.787551         2.714361
 C        -0.729669        -1.044403         2.521617
 C        -0.987925        -0.421088         1.126639
 C         0.236960         0.317004         0.875478
 C         0.657545         0.935141        -0.422437
 O         1.297055        -0.268195         0.057227
 C         0.820678         0.803917         2.312009
 H         1.045684        -0.153946         5.090176
 H         1.311032        -1.889748         1.861132
 H         0.642978        -2.544437         3.504664
 H        -1.454614        -1.448720         3.231008
 H        -1.328513        -1.122093         0.353459
 H        -1.687352         0.458324         1.168757
 H         0.067810         0.825204        -1.344494
 H         1.313211         1.787926        -0.357725
 H         1.907635         0.980775         2.254983
 H         0.344164         1.698290         2.609641
