19
Iteration:  1024charge 0 multiplicity 1
 O         0.129261         0.007079         4.601228
 C         0.389580        -0.524202         3.169128
 C         0.177733        -1.915008         2.770994
 C        -0.875712        -0.814463         2.505992
 C        -1.019825        -0.171710         1.179182
 C         0.373749         0.370281         0.915982
 C         0.862018         1.019322        -0.333775
 O         1.291934        -0.341424        -0.036928
 C         1.165620         0.447598         2.231952
 H         0.793450        -0.347384         5.200654
 H         0.814467        -2.174787         1.965111
 H        -0.034107        -2.676619         3.402628
 H        -1.889724        -0.988414         3.040426
 H        -1.335922        -0.905724         0.300368
 H        -1.777165         0.589520         1.242858
 H         0.148836         1.037162        -1.178736
 H         1.776546         1.593510        -0.196398
 H         2.286299         0.230003         1.985089
 H         1.101874         1.478213         2.662335
