19
Iteration:  1774charge 0 multiplicity 1
 O         0.361545        -0.131555         4.545543
 C         0.213261        -0.403288         3.203662
 C         0.082376        -1.867622         2.746426
 C        -1.049919        -0.849225         2.570315
 C        -0.949040        -0.286467         1.154014
 C         0.520040         0.247558         0.917159
 C         0.783224         1.040639        -0.356939
 O         1.450877        -0.289340        -0.045384
 C         1.037504         0.638634         2.288177
 H         0.655627        -0.890166         5.031734
 H         0.512194        -2.273480         1.851441
 H        -0.151169        -2.656856         3.515431
 H        -1.864105        -0.674935         3.253383
 H        -1.126777        -1.154577         0.530210
 H        -1.477383         0.497804         0.963153
 H         0.094219         0.884002        -1.135046
 H         1.558539         1.835799        -0.505070
 H         2.057010         0.651089         2.472817
 H         0.608364         1.698821         2.471131
