19
Iteration:  3023charge 0 multiplicity 1
 O         0.320406        -0.096217         4.582749
 C         0.292566        -0.442337         3.182245
 C         0.206992        -1.875536         2.807004
 C        -0.903257        -0.936293         2.462194
 C        -1.031294        -0.159974         1.183020
 C         0.367307         0.342171         0.926876
 C         0.891821         0.952916        -0.361781
 O         1.333663        -0.335109         0.010854
 C         1.029255         0.649135         2.197025
 H         0.322460        -0.961287         5.056831
 H         0.731987        -2.453052         1.993508
 H        -0.116714        -2.459789         3.761737
 H        -1.904753        -1.109932         2.945587
 H        -1.268066        -0.593537         0.147833
 H        -1.832683         0.643790         1.252690
 H         0.244232         0.942132        -1.238241
 H         1.723062         1.707161        -0.215370
 H         2.147128         0.600204         2.152107
 H         0.760242         1.649980         2.613378
