19
Iteration:  2749charge 0 multiplicity 1
 O         0.233432         0.121375         4.559784
 C         0.294941        -0.449450         3.314523
 C         0.043989        -1.940249         3.044784
 C        -0.871742        -0.871244         2.487652
 C        -0.775237        -0.426888         1.009975
 C         0.648048         0.150221         0.957909
 C         0.691004         1.265042        -0.114461
 O         1.133408        -0.134691        -0.445739
 C         1.257830         0.218121         2.288541
 H        -0.745497         0.272575         4.650440
 H         0.734529        -2.497695         2.474604
 H        -0.522531        -2.483356         3.799336
 H        -1.955892        -0.814211         2.927186
 H        -0.884971        -1.266073         0.267869
 H        -1.565475         0.395675         0.680855
 H        -0.173703         1.682153        -0.575225
 H         1.548945         1.840642        -0.210008
 H         2.323903        -0.117418         2.361338
 H         1.418104         1.283454         2.647497
