19
Iteration:  4812charge 0 multiplicity 1
 O         0.421239        -0.045670         4.529834
 C         0.242718        -0.323648         3.220362
 C         0.525648        -1.785364         2.682088
 C        -0.766208        -1.129601         2.493624
 C        -0.920441        -0.495553         1.156305
 C         0.307994         0.346579         0.888030
 C         0.620443         0.971381        -0.368992
 O         1.284136        -0.254088         0.052123
 C         0.792881         0.774644         2.353237
 H        -0.290515        -0.454720         5.049562
 H         1.354860        -1.998273         1.952846
 H         0.425518        -2.436964         3.529128
 H        -1.629412        -1.606119         3.038174
 H        -0.992310        -1.170637         0.290355
 H        -1.797747         0.174508         1.017020
 H         0.063170         0.868623        -1.284997
 H         1.289705         1.865027        -0.316996
 H         1.855555         1.022695         2.339507
 H         0.313716         1.658418         2.705828
