19
Iteration:  3390
 O         0.189633        -0.195997         4.529331
 C         0.361906        -0.434814         3.151496
 C         0.302585        -1.849862         2.698972
 C        -0.930546        -0.755465         2.555684
 C        -1.024120        -0.205277         1.117844
 C         0.397789         0.396228         0.926084
 C         0.930809         0.944501        -0.357093
 O         1.154481        -0.473964        -0.020952
 C         1.091075         0.696024         2.407131
 H         0.939154         0.276317         4.993743
 H         0.883972        -2.239251         1.852290
 H         0.079381        -2.685778         3.388199
 H        -1.648146        -0.881353         3.315576
 H        -1.055313        -1.046051         0.356021
 H        -1.916322         0.458871         0.969410
 H         0.237427         1.062785        -1.217409
 H         1.918625         1.471525        -0.279510
 H         2.207498         0.518965         2.350314
 H         0.790549         1.704471         2.860473
