19
Iteration:  4352charge 0 multiplicity 1
 O         0.302568        -0.016363         4.590574
 C         0.313078        -0.425193         3.292818
 C         0.355282        -1.992739         2.801291
 C        -0.824817        -1.000635         2.513564
 C        -0.978117        -0.423834         1.099955
 C         0.343212         0.355207         0.920152
 C         0.792789         1.049676        -0.324806
 O         1.230217        -0.251375        -0.108655
 C         0.925888         0.657054         2.234417
 H         0.966666         0.619122         4.917688
 H         1.059818        -2.144447         1.972385
 H         0.108013        -2.600335         3.718624
 H        -1.719440        -1.095682         3.108268
 H        -1.199181        -1.190929         0.355280
 H        -1.863110         0.222334         1.223701
 H         0.121703         1.193245        -1.213855
 H         1.570416         1.908632        -0.139128
 H         2.009775         0.477515         2.095706
 H         0.796534         1.680012         2.526323
