19
Iteration:  2380charge 0 multiplicity 1
 O         0.067979         0.029703         4.500052
 C         0.306385        -0.462998         3.231809
 C         0.158098        -1.962194         2.976156
 C        -0.870154        -0.942402         2.479934
 C        -0.934305        -0.208490         1.177480
 C         0.521193         0.322616         0.889072
 C         0.715570         1.155191        -0.368672
 O         1.294835        -0.219267        -0.133962
 C         1.257825         0.288527         2.266637
 H         0.906190        -0.162597         4.951207
 H         0.674236        -2.448560         2.217688
 H        -0.167680        -2.467491         3.883010
 H        -1.733261        -0.736102         3.001140
 H        -1.223067        -0.627996         0.196655
 H        -1.583927         0.721852         1.422635
 H        -0.130457         1.134607        -1.035533
 H         1.534407         1.815570        -0.426715
 H         2.119415        -0.341712         2.061668
 H         1.444869         1.289988         2.761175
