19
Iteration:   281
 O         0.167562         0.071127         4.522437
 C         0.253342        -0.391215         3.226444
 C         0.258109        -1.916594         2.797341
 C        -0.971828        -0.954967         2.538329
 C        -1.001807        -0.195141         1.211360
 C         0.444619         0.255219         0.915992
 C         0.848956         0.994177        -0.260431
 O         1.325312        -0.291957        -0.096667
 C         1.131817         0.407734         2.215012
 H         1.064739         0.211091         4.930571
 H         0.821469        -2.237129         1.968117
 H        -0.134407        -2.660944         3.448760
 H        -1.919921        -1.387087         2.930004
 H        -1.330643        -0.773130         0.422493
 H        -1.474585         0.783894         1.299140
 H         0.170605         1.274570        -1.117587
 H         1.563912         1.762849        -0.200776
 H         2.141832         0.061430         1.999874
 H         1.154015         1.531500         2.504746
