19
Iteration:   300
 O         0.156541         0.133077         4.541087
 C         0.286852        -0.463317         3.254030
 C         0.259919        -1.913794         2.816614
 C        -0.918967        -1.013354         2.414888
 C        -1.059340        -0.166661         1.165169
 C         0.444385         0.310155         0.857800
 C         0.841918         1.043359        -0.291349
 O         1.309892        -0.323723        -0.098628
 C         1.144949         0.302318         2.326834
 H         0.918495         0.684505         4.834133
 H         1.102811        -2.239696         2.166832
 H         0.190361        -2.694228         3.526882
 H        -1.833712        -0.922324         3.077500
 H        -1.638938        -0.547167         0.247028
 H        -1.508816         0.770766         1.569353
 H        -0.063879         1.150519        -1.112906
 H         1.446481         1.979841        -0.188740
 H         2.133564        -0.156923         2.248905
 H         1.295330         1.260308         2.743790
