19
Iteration:  1182
 O         0.134905        -0.176069         4.607840
 C         0.278063        -0.368589         3.270430
 C         0.317197        -1.730717         2.748354
 C        -0.910712        -0.870401         2.466652
 C        -0.993064        -0.162160         1.149249
 C         0.472267         0.315144         0.916862
 C         0.964353         0.993124        -0.294503
 O         1.138531        -0.467437        -0.127325
 C         1.110893         0.535230         2.272500
 H         1.019778        -0.010808         4.992800
 H         0.889929        -2.166838         1.806303
 H        -0.005638        -2.509231         3.513414
 H        -1.846948        -1.005440         3.075903
 H        -1.493380        -0.660334         0.379230
 H        -1.709906         0.658890         1.433162
 H         0.240065         1.339163        -1.025088
 H         1.979899         1.506947        -0.208012
 H         2.140952         0.406248         2.321483
 H         1.039168         1.611730         2.391584
