19
Iteration:  1106charge 0 multiplicity 1
 O         0.339419        -0.141266         4.473215
 C         0.328924        -0.413284         3.108393
 C         0.123955        -1.832849         2.648881
 C        -0.950727        -0.893017         2.511629
 C        -1.066027        -0.113862         1.189918
 C         0.323476         0.385086         0.915627
 C         0.965874         0.853198        -0.295665
 O         1.343489        -0.384202         0.184544
 C         0.990906         0.655321         2.267810
 H         1.098060        -0.676947         4.683121
 H         0.646773        -2.115213         1.647657
 H         0.055220        -2.698705         3.428112
 H        -1.703027        -0.913164         3.294606
 H        -1.338421        -0.758754         0.385723
 H        -1.860089         0.679798         1.166971
 H         0.367403         0.828257        -1.221803
 H         1.884373         1.572486        -0.367291
 H         2.089550         0.607706         2.312649
 H         0.741897         1.617687         2.717641
