19
Iteration:  2228charge 0 multiplicity 1
 O         0.295145        -0.117213         4.659871
 C         0.281813        -0.397606         3.211846
 C         0.314229        -1.803976         2.731692
 C        -0.929373        -0.860893         2.420183
 C        -1.037748        -0.159913         1.074780
 C         0.389451         0.345335         0.941129
 C         0.902141         0.926830        -0.260685
 O         1.203025        -0.450237        -0.054332
 C         1.016722         0.626129         2.288021
 H         0.911987        -0.879453         4.851330
 H         1.072526        -1.974054         1.988068
 H         0.113254        -2.507548         3.525143
 H        -1.849337        -1.230036         2.887989
 H        -1.442234        -0.763348         0.231373
 H        -1.651792         0.805235         1.203058
 H         0.355101         1.123250        -1.181036
 H         1.779171         1.518760        -0.346001
 H         2.174079         0.579456         2.340665
 H         0.819702         1.716495         2.656286
