19
Iteration:  1324
 O         0.206848         0.082456         4.559838
 C         0.233573        -0.497224         3.194678
 C         0.151437        -1.933769         2.982057
 C        -0.864967        -0.997193         2.395027
 C        -0.969051        -0.174259         1.099136
 C         0.416039         0.353611         0.916185
 C         0.800905         1.136832        -0.212443
 O         1.292963        -0.292434        -0.160704
 C         1.160941         0.252561         2.237845
 H         1.070112         0.332346         4.896884
 H         1.144553        -2.306259         2.376764
 H        -0.255759        -2.460057         3.880686
 H        -1.850520        -1.182562         2.747640
 H        -1.409335        -0.500608         0.193772
 H        -1.617959         0.675894         1.480567
 H         0.234192         1.331468        -1.126584
 H         1.623430         1.830062        -0.106269
 H         2.147313        -0.023723         2.045192
 H         1.269965         1.397153         2.595577
