19
Iteration:  1871
 O         0.072966        -0.135452         4.574011
 C         0.407692        -0.430942         3.191014
 C         0.411982        -1.799129         2.609324
 C        -0.870800        -0.943536         2.455063
 C        -1.026759        -0.050434         1.195897
 C         0.395170         0.355185         0.943724
 C         0.971554         0.898664        -0.335396
 O         1.130686        -0.474203         0.054360
 C         1.018063         0.634316         2.286042
 H         0.925053        -0.081582         5.002441
 H         1.065723        -2.001698         1.784221
 H         0.222110        -2.634619         3.283630
 H        -1.723386        -1.147049         3.046936
 H        -1.461829        -0.711900         0.401773
 H        -1.518106         0.941950         1.578726
 H         0.386749         1.124678        -1.155549
 H         1.825755         1.568486        -0.271451
 H         2.022364         0.501766         2.111888
 H         0.808027         1.639044         2.742280
