19
Iteration:  2777
 O         0.258481        -0.042361         4.561967
 C         0.315526        -0.400128         3.248510
 C         0.005000        -1.910536         3.056490
 C        -0.998990        -0.835346         2.584863
 C        -0.948240        -0.539154         1.053854
 C         0.520185         0.209105         0.901844
 C         0.730498         1.203569        -0.170373
 O         1.346178        -0.039053        -0.302899
 C         1.283276         0.288080         2.160961
 H        -0.276519         0.771887         4.503698
 H         0.653753        -2.567616         2.384910
 H        -0.270989        -2.272567         4.042163
 H        -1.928034        -0.655273         3.110794
 H        -0.883909        -1.450774         0.484452
 H        -1.649638         0.133307         0.645118
 H         0.001594         1.522545        -1.004271
 H         1.524656         2.054277        -0.082986
 H         2.211475        -0.266511         1.969700
 H         1.566971         1.272841         2.488788
