19
Iteration:  2377
 O         0.067548         0.030340         4.478048
 C         0.324035        -0.444051         3.217066
 C         0.127108        -1.963368         2.975253
 C        -0.885624        -0.961731         2.468214
 C        -0.940783        -0.208819         1.198607
 C         0.516346         0.295853         0.906666
 C         0.738668         1.152007        -0.372946
 O         1.292674        -0.205851        -0.134550
 C         1.266953         0.299100         2.270427
 H         0.904384        -0.158768         5.005919
 H         0.845714        -2.411001         2.187805
 H        -0.118603        -2.409855         3.944938
 H        -1.792792        -0.739599         3.110722
 H        -1.286883        -0.649688         0.209852
 H        -1.649263         0.637624         1.452706
 H        -0.208284         1.158823        -1.082455
 H         1.598528         1.876512        -0.376518
 H         2.162116        -0.283114         2.023907
 H         1.521199         1.186864         2.785127
