19
Iteration:  3109charge 0 multiplicity 1
 O         0.294347         0.033453         4.403598
 C         0.374435        -0.450087         3.149933
 C         0.120237        -1.937525         3.048456
 C        -0.970328        -0.898148         2.503116
 C        -1.002286        -0.339786         1.101687
 C         0.419889         0.266298         0.897187
 C         0.808597         1.181301        -0.191107
 O         1.340700        -0.208535        -0.153260
 C         1.148310         0.405955         2.234258
 H        -0.198192        -0.543084         5.043190
 H         0.882938        -2.566039         2.504588
 H        -0.197418        -2.510639         3.995638
 H        -1.864277        -1.155439         3.173700
 H        -1.180688        -0.879768         0.213298
 H        -1.695958         0.444668         1.278522
 H         0.052995         1.136608        -1.034550
 H         1.472622         2.145869        -0.051367
 H         2.163220         0.067837         1.941595
 H         1.131865         1.357741         2.719965
