19
Iteration:  3999
 O         0.381892        -0.108479         4.699487
 C         0.312637        -0.409402         3.242401
 C         0.320457        -1.865006         2.789329
 C        -0.933209        -1.033959         2.511722
 C        -0.926249        -0.396512         1.068259
 C         0.404169         0.347434         0.888476
 C         0.743575         1.077597        -0.353838
 O         1.187139        -0.292307        -0.043956
 C         1.016808         0.675639         2.228338
 H        -0.002464         0.793825         4.768910
 H         1.009653        -2.137994         1.842648
 H         0.225361        -2.596025         3.608642
 H        -1.744411        -1.399037         3.081040
 H        -0.866409        -1.070507         0.286417
 H        -1.767560         0.226543         0.975021
 H         0.040479         1.100634        -1.209670
 H         1.569877         1.821690        -0.421055
 H         2.095586         0.713970         2.370328
 H         0.586165         1.628012         2.445695
