19
Iteration:  3835charge 0 multiplicity 1
 O         0.374335         0.009505         4.608033
 C         0.337697        -0.452364         3.180312
 C         0.201433        -1.885720         2.926694
 C        -0.877911        -0.990472         2.483045
 C        -0.861784        -0.435026         0.976845
 C         0.379446         0.376080         0.926538
 C         0.690011         1.115803        -0.242823
 O         1.234116        -0.230157        -0.133702
 C         1.043780         0.443455         2.312181
 H         0.315832         0.996901         4.402311
 H         0.817976        -2.461691         2.131702
 H        -0.039835        -2.460945         4.000956
 H        -1.846440        -1.170075         3.019789
 H        -0.918990        -1.305558         0.218269
 H        -1.646384         0.359943         0.865973
 H        -0.139679         1.053633        -0.905161
 H         1.306392         2.063954        -0.278994
 H         2.168181         0.269947         2.261209
 H         0.807547         1.545308         2.666706
