19
Iteration:  2064
 O         0.285903         0.132430         4.500035
 C         0.232951        -0.513581         3.241724
 C         0.094734        -1.977540         2.912846
 C        -1.038313        -0.994588         2.480355
 C        -0.938911        -0.331176         1.163637
 C         0.458024         0.369427         0.892830
 C         0.886227         1.167491        -0.292255
 O         1.302545        -0.230356        -0.179853
 C         1.128382         0.329199         2.308189
 H         1.096136        -0.146909         4.932749
 H         0.821530        -2.301815         2.215658
 H        -0.036039        -2.525601         3.802113
 H        -1.979499        -1.017358         3.056136
 H        -1.163109        -0.998415         0.292445
 H        -1.770067         0.425761         1.142342
 H         0.258846         1.591867        -1.204990
 H         1.614549         2.029857        -0.157258
 H         2.261304         0.070400         2.310150
 H         1.105882         1.275541         2.718002
