19
Iteration:  2717
 O         0.215370         0.228249         4.457859
 C         0.311543        -0.429799         3.244010
 C         0.123460        -1.943641         3.027415
 C        -0.925268        -0.976088         2.550481
 C        -0.878695        -0.435659         1.063646
 C         0.489498         0.219814         0.916847
 C         0.824934         1.303321        -0.130441
 O         1.202997        -0.119642        -0.303078
 C         1.217833         0.137885         2.249805
 H        -0.475997        -0.054161         5.029944
 H         0.772830        -2.437062         2.364856
 H        -0.190936        -2.726923         3.721860
 H        -1.956817        -0.967458         3.180049
 H        -1.103061        -1.184241         0.258650
 H        -1.762920         0.318113         1.056328
 H         0.191638         1.762084        -0.896254
 H         1.836595         1.861645        -0.056294
 H         2.043148        -0.583889         1.993515
 H         1.500830         1.203100         2.524893
