19
Iteration:   146charge 0 multiplicity 1
 O         0.106471        -0.167386         4.710910
 C         0.317878        -0.327162         3.277686
 C         0.384896        -1.851388         2.882346
 C        -0.880531        -0.856591         2.452145
 C        -1.037786        -0.146950         1.097603
 C         0.464964         0.399240         0.861375
 C         1.042008         0.948261        -0.334869
 O         1.064337        -0.460895        -0.187992
 C         1.062263         0.540684         2.241359
 H         0.974402         0.031064         5.125521
 H         0.889842        -2.157683         1.956497
 H         0.034846        -2.613780         3.663033
 H        -1.740300        -1.107310         3.041991
 H        -1.316883        -0.707194         0.277186
 H        -1.758989         0.637985         1.175900
 H         0.428746         1.368574        -1.054021
 H         1.958474         1.652828        -0.332088
 H         2.163673         0.279062         2.223097
 H         0.882425         1.611092         2.549029
