19
Iteration:  1074
 O         0.486937        -0.261856         4.674842
 C         0.225597        -0.333456         3.249442
 C         0.084349        -1.740293         2.717393
 C        -0.996663        -0.828619         2.463108
 C        -0.987579        -0.184286         1.008856
 C         0.443108         0.290924         0.836848
 C         0.951533         0.924109        -0.299093
 O         1.287447        -0.426217         0.001635
 C         0.881494         0.661386         2.383552
 H         1.494456        -0.144851         4.736843
 H         0.733859        -2.037886         1.801221
 H        -0.150734        -2.611492         3.478653
 H        -1.925756        -0.891666         3.019719
 H        -1.146654        -0.998393         0.333969
 H        -1.664598         0.703484         0.827240
 H         0.286351         1.027322        -1.167509
 H         1.880429         1.618976        -0.276361
 H         2.018292         0.692441         2.265867
 H         0.368958         1.588765         2.569599
