19
Iteration:  2492charge 0 multiplicity 1
 O         0.309708        -0.153055         4.526397
 C         0.269926        -0.428524         3.165473
 C         0.228318        -1.836883         2.655151
 C        -0.970021        -0.865265         2.427284
 C        -0.953210        -0.128611         1.125339
 C         0.450314         0.406516         0.994523
 C         0.844702         0.829280        -0.376297
 O         1.346019        -0.449200         0.075409
 C         0.956466         0.713366         2.412367
 H         1.181931        -0.627550         4.678427
 H         0.768647        -2.072774         1.690527
 H         0.031474        -2.498951         3.490997
 H        -1.889993        -1.220542         3.066383
 H        -1.437342        -0.633406         0.223438
 H        -1.684575         0.791576         1.331751
 H        -0.002135         0.787571        -0.966903
 H         1.465700         1.711686        -0.590063
 H         2.081388         0.764518         2.597328
 H         0.585950         1.772590         2.731502
