19
Iteration:  2738charge 0 multiplicity 1
 O         0.209942         0.223608         4.565945
 C         0.291174        -0.521488         3.252561
 C         0.063133        -2.000632         3.002906
 C        -0.947990        -0.885263         2.456913
 C        -0.772027        -0.407210         1.084631
 C         0.549938         0.205033         0.883358
 C         0.813228         1.200704        -0.121743
 O         1.106197        -0.091905        -0.455608
 C         1.344410         0.223512         2.380014
 H        -0.661479         0.333329         5.036173
 H         0.840452        -2.495244         2.492604
 H        -0.305146        -2.633577         3.806750
 H        -1.987313        -1.066021         3.008999
 H        -0.826152        -1.302113         0.395894
 H        -1.703473         0.298472         0.808093
 H        -0.148634         1.452521        -0.495206
 H         1.512100         1.981055        -0.181478
 H         2.280482        -0.348654         2.194555
 H         1.349440         1.333795         2.615553
