19
Iteration:  1763charge 0 multiplicity 1
 O         0.400346        -0.058940         4.494986
 C         0.269814        -0.453485         3.175087
 C         0.014264        -1.930777         2.828827
 C        -1.061094        -0.814238         2.548187
 C        -0.920732        -0.306519         1.094519
 C         0.543054         0.253720         0.924568
 C         0.772995         1.027483        -0.322048
 O         1.409642        -0.234303        -0.036857
 C         1.018238         0.584021         2.313736
 H         0.621811        -0.815406         5.037568
 H         0.667201        -2.356679         2.102857
 H         0.015648        -2.511844         3.787080
 H        -2.054652        -1.043013         2.860955
 H        -1.210441        -0.904778         0.248343
 H        -1.530036         0.450842         1.005137
 H         0.094403         1.004669        -1.150650
 H         1.470033         1.894641        -0.312125
 H         2.041837         0.420953         2.418674
 H         0.800162         1.658692         2.641110
