19
Iteration:    77
 O         0.355078         0.000302         4.487932
 C         0.354381        -0.481115         3.167704
 C         0.134226        -1.953103         2.735848
 C        -0.885421        -0.850438         2.403896
 C        -1.017144        -0.158584         1.109663
 C         0.407214         0.386051         0.919236
 C         0.852470         0.935251        -0.304925
 O         1.289855        -0.368347         0.168078
 C         1.029122         0.607896         2.302816
 H         0.890724        -0.655336         5.029350
 H         0.714990        -2.438408         1.920289
 H        -0.380172        -2.508537         3.463749
 H        -1.825110        -1.024786         2.974261
 H        -1.436159        -0.747446         0.282035
 H        -1.727448         0.526671         1.222526
 H         0.270182         0.653675        -1.142186
 H         1.416854         1.712933        -0.530231
 H         2.085985         0.490153         2.270603
 H         0.686396         1.478055         2.731962
