19
Iteration:  3417charge 0 multiplicity 1
 O         0.179443         0.018631         4.653666
 C         0.227353        -0.412243         3.238861
 C         0.304534        -1.874825         2.783577
 C        -0.932302        -1.002124         2.422171
 C        -0.961261        -0.090801         1.161159
 C         0.434075         0.332239         0.881682
 C         0.847531         1.009013        -0.336657
 O         1.232125        -0.421635        -0.074977
 C         1.131128         0.515197         2.248140
 H         1.024846        -0.256721         5.130043
 H         1.100531        -2.086829         2.049731
 H         0.070727        -2.772449         3.331416
 H        -1.832641        -1.373422         3.035302
 H        -1.317588        -0.591497         0.264376
 H        -1.668965         0.755448         1.385744
 H        -0.001000         1.189671        -1.010509
 H         1.694428         1.613634        -0.229178
 H         2.139619         0.139090         2.138829
 H         1.090834         1.538176         2.583054
