19
Iteration:  2611charge 0 multiplicity 1
 O         0.193743        -0.150675         4.565834
 C         0.344480        -0.360113         3.195777
 C         0.160838        -1.853062         2.863356
 C        -1.005243        -0.828107         2.571894
 C        -0.961907        -0.305975         1.136033
 C         0.485793         0.284077         0.871709
 C         0.804641         1.072475        -0.333347
 O         1.352496        -0.286373        -0.108918
 C         1.082791         0.527950         2.243110
 H         0.990214        -0.287186         5.058621
 H         0.713418        -2.236785         1.997798
 H        -0.141125        -2.542835         3.711313
 H        -1.875513        -0.831883         3.316910
 H        -1.138884        -1.202893         0.509816
 H        -1.678835         0.437050         0.850707
 H         0.105015         1.023874        -1.142405
 H         1.462241         1.966840        -0.087991
 H         2.078669         0.107470         2.123871
 H         1.312156         1.537503         2.490466
