19
Iteration:  2482charge 0 multiplicity 1
 O         0.378099        -0.114063         4.527179
 C         0.230141        -0.396376         3.170255
 C         0.155523        -1.842492         2.685206
 C        -0.946467        -0.962980         2.444210
 C        -0.980345        -0.139710         1.182146
 C         0.491614         0.438002         0.937660
 C         0.860976         0.894246        -0.371722
 O         1.338028        -0.397834         0.113250
 C         0.916966         0.615347         2.304105
 H         1.177272        -0.522649         4.947241
 H         0.790722        -2.313484         1.853171
 H        -0.069026        -2.667674         3.383087
 H        -1.991315        -0.950342         2.947080
 H        -1.081083        -0.668679         0.205433
 H        -1.736209         0.717487         1.288112
 H         0.155919         0.823197        -1.142119
 H         1.600394         1.686363        -0.527895
 H         2.047113         0.694957         2.476824
 H         0.417350         1.540348         2.828776
