19
Iteration:  1268charge 0 multiplicity 1
 O         0.288194        -0.144767         4.656749
 C         0.308879        -0.365409         3.271243
 C         0.033775        -1.784444         2.852630
 C        -0.958667        -0.720223         2.564739
 C        -0.929729        -0.416672         1.002388
 C         0.501837         0.180811         0.879220
 C         0.795988         1.094915        -0.228404
 O         1.306027        -0.266934        -0.242354
 C         1.126152         0.532370         2.283039
 H         0.637024        -0.874769         5.262534
 H         0.773846        -2.311805         2.039849
 H        -0.115040        -2.402986         3.776151
 H        -1.967210        -0.646936         3.090905
 H        -1.034508        -1.354569         0.430645
 H        -1.691864         0.280968         0.558708
 H         0.051251         1.367176        -0.898440
 H         1.707228         1.773199        -0.186331
 H         2.156510         0.205165         2.221087
 H         0.943593         1.722804         2.299510
