19
Iteration:   238
 O         0.304719        -0.175279         4.674722
 C         0.349449        -0.405213         3.255192
 C         0.080512        -1.818359         2.882857
 C        -0.979161        -0.784166         2.511490
 C        -0.868985        -0.347027         1.068209
 C         0.475692         0.354724         0.844285
 C         0.944988         1.023134        -0.344203
 O         1.192166        -0.405838        -0.140685
 C         1.033346         0.713105         2.236988
 H         0.658278        -1.006201         5.046548
 H         0.736226        -2.244048         2.183511
 H        -0.251011        -2.286306         3.775287
 H        -1.964728        -0.909843         3.038799
 H        -0.761220        -1.289468         0.502402
 H        -1.838969         0.127653         0.770073
 H         0.174049         1.260356        -1.136876
 H         1.602421         1.822835        -0.335693
 H         2.115916         0.604731         2.355642
 H         0.656887         1.807566         2.521958
