19
Iteration:  1514
 O         0.261435        -0.034569         4.603464
 C         0.258470        -0.395143         3.221040
 C         0.425252        -1.794091         2.601058
 C        -0.916172        -0.986623         2.399145
 C        -1.017520        -0.020167         1.158061
 C         0.463881         0.326051         0.925322
 C         0.933696         0.856741        -0.303931
 O         1.144563        -0.521945        -0.031144
 C         1.002057         0.647881         2.408510
 H        -0.035199        -0.844943         5.116769
 H         1.111863        -1.914046         1.765015
 H         0.094214        -2.720555         2.927426
 H        -1.807199        -1.322435         3.035766
 H        -1.496972        -0.407635         0.308129
 H        -1.414813         0.916077         1.507511
 H         0.163854         1.163998        -0.999817
 H         1.812155         1.502862        -0.342617
 H         2.165112         0.706043         2.582213
 H         0.621192         1.627437         2.757111
