19
Iteration:  2356charge 0 multiplicity 1
 O         0.101967         0.115283         4.444913
 C         0.334335        -0.494027         3.229341
 C         0.197088        -1.947809         2.936888
 C        -0.937319        -0.936587         2.543799
 C        -0.998340        -0.295438         1.176946
 C         0.449500         0.318245         0.926230
 C         0.844620         1.161009        -0.173473
 O         1.259163        -0.241314        -0.233143
 C         1.275622         0.326407         2.221408
 H         0.797534        -0.205732         5.014895
 H         0.625350        -2.509488         2.106082
 H        -0.235431        -2.528979         3.737262
 H        -1.899279        -1.010862         3.065839
 H        -1.216369        -0.888326         0.248678
 H        -1.624369         0.665159         1.166992
 H         0.095779         1.350938        -1.008349
 H         1.693957         1.821831         0.016454
 H         2.232141        -0.172719         2.099702
 H         1.268310         1.343739         2.547773
