19
Iteration:   886charge 0 multiplicity 1
 O         0.379748        -0.100481         4.637431
 C         0.242382        -0.406865         3.234885
 C         0.003780        -1.948199         2.826920
 C        -0.991937        -0.767986         2.582901
 C        -0.887793        -0.292778         1.072123
 C         0.492523         0.294983         0.852179
 C         0.815135         1.033002        -0.401913
 O         1.397729        -0.273480        -0.111751
 C         1.010299         0.498773         2.285447
 H         1.310319        -0.063755         4.898135
 H         0.553245        -2.554048         2.071528
 H        -0.242031        -2.569035         3.652004
 H        -2.013656        -0.863963         3.101195
 H        -1.273408        -0.940949         0.359351
 H        -1.595276         0.569163         1.200354
 H        -0.017220         0.971068        -1.088509
 H         1.380585         1.886155        -0.280159
 H         2.110285         0.463667         2.451368
 H         0.648991         1.576622         2.516175
