19
Iteration:  3140charge 0 multiplicity 1
 O         0.395999         0.099332         4.564921
 C         0.310673        -0.501474         3.264053
 C         0.018070        -1.875098         2.860392
 C        -1.012971        -0.821886         2.558192
 C        -0.896814        -0.493322         1.049634
 C         0.486518         0.240961         0.927106
 C         0.795595         1.163937        -0.252862
 O         1.296695        -0.150069        -0.213445
 C         1.124677         0.382451         2.311984
 H         0.035664        -0.551457         5.155017
 H         0.686780        -2.257229         2.109046
 H        -0.305211        -2.582563         3.658175
 H        -2.042793        -1.066540         3.065368
 H        -0.873688        -1.300895         0.337423
 H        -1.770871         0.085439         0.634612
 H        -0.093039         1.112006        -0.935407
 H         1.565027         2.014761        -0.236722
 H         2.205742         0.240017         2.053073
 H         1.115572         1.408589         2.636868
