19
Iteration:   829
 O         0.207905         0.029060         4.598628
 C         0.318987        -0.427726         3.270264
 C         0.396670        -1.797536         2.607482
 C        -0.949805        -0.986452         2.388656
 C        -1.046649        -0.132636         1.121185
 C         0.431600         0.412122         0.923738
 C         0.947647         0.918733        -0.287630
 O         1.084637        -0.471932        -0.001353
 C         1.106687         0.520685         2.352744
 H         0.633912        -0.498368         5.303171
 H         1.182349        -1.946205         1.976484
 H         0.228284        -2.667835         3.265652
 H        -1.860217        -1.170529         2.957086
 H        -1.339094        -0.596067         0.196020
 H        -1.828537         0.574845         1.331481
 H         0.314928         1.284050        -1.073284
 H         1.863233         1.520760        -0.283292
 H         2.147097         0.309115         2.294528
 H         1.012171         1.611963         2.683986
