19
Iteration:   881charge 0 multiplicity 1
 O         0.342207        -0.130559         4.611902
 C         0.281458        -0.392668         3.228962
 C         0.016167        -1.915150         2.872260
 C        -0.994118        -0.799634         2.592781
 C        -0.928447        -0.278898         1.098521
 C         0.512374         0.301101         0.840533
 C         0.835780         1.003526        -0.368610
 O         1.381657        -0.285922        -0.152783
 C         1.003696         0.560136         2.274353
 H         1.294324        -0.172914         4.912307
 H         0.531512        -2.349963         2.024246
 H        -0.180017        -2.663565         3.690731
 H        -1.899041        -0.911353         3.107754
 H        -1.362328        -0.943556         0.242863
 H        -1.630967         0.539859         1.186349
 H         0.091922         0.933667        -1.197498
 H         1.517756         1.947677        -0.246998
 H         2.081294         0.471265         2.441808
 H         0.761717         1.494595         2.748536
