19
Iteration:  4140
 O         0.362064        -0.037246         4.577246
 C         0.369254        -0.425996         3.227423
 C         0.432411        -1.886799         2.723808
 C        -0.903916        -0.897943         2.588217
 C        -0.934317        -0.366780         1.154822
 C         0.336705         0.231125         0.900163
 C         0.700936         1.007295        -0.415035
 O         1.309348        -0.223278        -0.002190
 C         0.921722         0.650077         2.237992
 H        -0.367720        -0.268993         5.160191
 H         0.887693        -2.180523         1.692625
 H         0.235844        -2.744693         3.496890
 H        -1.863125        -1.231616         3.058641
 H        -1.235776        -1.201924         0.557037
 H        -1.793160         0.433412         1.169757
 H         0.139665         0.909899        -1.414016
 H         1.203331         1.932974        -0.205548
 H         2.007189         0.613866         2.379154
 H         0.490635         1.602924         2.621802
