19
Iteration:  4435
 O         0.286912        -0.199697         4.582134
 C         0.287943        -0.363403         3.195275
 C         0.493595        -1.748577         2.689023
 C        -0.807163        -0.993072         2.467373
 C        -1.040303        -0.256035         1.106256
 C         0.341396         0.400034         0.949983
 C         0.752805         0.883017        -0.363629
 O         1.215478        -0.423613         0.073215
 C         0.945191         0.772374         2.304896
 H         1.128884         0.192113         4.873770
 H         1.111123        -2.235093         1.932340
 H         0.403014        -2.478647         3.486928
 H        -1.721584        -1.299396         2.967268
 H        -1.302451        -0.972654         0.308068
 H        -1.881610         0.510237         1.190042
 H         0.044282         1.032956        -1.146723
 H         1.549257         1.630590        -0.304420
 H         2.043165         0.943735         2.292781
 H         0.409664         1.731969         2.454788
