19
Iteration:   696
 O         0.340355         0.050595         4.529597
 C         0.288790        -0.462374         3.147379
 C         0.066648        -1.969237         2.875058
 C        -0.934732        -0.902015         2.553060
 C        -1.047882        -0.260981         1.141203
 C         0.466502         0.292944         0.830635
 C         0.999923         1.111946        -0.304039
 O         1.292273        -0.340237        -0.088090
 C         1.041535         0.511789         2.283244
 H         0.139634        -0.780991         5.023883
 H         0.791648        -2.429825         2.140216
 H        -0.206251        -2.598688         3.723768
 H        -1.734990        -0.821240         3.285677
 H        -1.605099        -0.895373         0.359592
 H        -1.585792         0.688357         1.266352
 H         0.284332         1.259499        -1.165257
 H         1.826750         1.913764        -0.279379
 H         2.089747         0.359738         2.071277
 H         0.820860         1.500062         2.909630
