19
Iteration:  3335charge 0 multiplicity 1
 O         0.510139        -0.094647         4.555877
 C         0.220540        -0.431110         3.221719
 C         0.170794        -1.806875         2.606445
 C        -1.090746        -0.884208         2.446389
 C        -1.102693        -0.072278         1.166355
 C         0.363983         0.478927         0.954830
 C         0.959074         0.767717        -0.313075
 O         1.448010        -0.427007         0.073521
 C         0.890218         0.602353         2.322262
 H         1.078665        -0.775058         4.937547
 H         0.832550        -1.866678         1.718152
 H         0.160854        -2.641157         3.239689
 H        -1.985452        -1.227853         3.011948
 H        -1.240947        -0.681877         0.198014
 H        -2.003444         0.575252         1.357358
 H         0.256604         0.684740        -1.167773
 H         1.665073         1.536068        -0.638944
 H         2.006078         0.675722         2.470310
 H         0.479681         1.637414         2.676182
