19
Iteration:  1597charge 0 multiplicity 1
 O         0.355410        -0.115138         4.573805
 C         0.265396        -0.356599         3.264415
 C         0.010980        -1.821307         2.771158
 C        -1.037796        -0.841015         2.540687
 C        -0.896372        -0.380269         1.090497
 C         0.470323         0.164207         0.929520
 C         0.892588         1.069237        -0.187857
 O         1.331516        -0.280408        -0.273630
 C         1.054413         0.549983         2.359786
 H         1.243202        -0.000452         4.882993
 H         0.710909        -2.126141         1.943103
 H         0.071358        -2.516678         3.654814
 H        -2.112940        -0.696041         2.950534
 H        -1.313581        -1.216767         0.476479
 H        -1.666332         0.389731         0.769071
 H         0.051481         1.383284        -0.925726
 H         1.694099         1.788278        -0.106566
 H         2.042688         0.500410         2.552384
 H         0.682879         1.629995         2.502393
