19
Iteration:   771
 O         0.211669        -0.295415         4.558045
 C         0.334112        -0.365192         3.239185
 C         0.253823        -1.802608         2.679890
 C        -0.868127        -0.783971         2.559327
 C        -1.033452        -0.154454         1.161162
 C         0.390020         0.388331         0.927506
 C         0.913495         0.876983        -0.396722
 O         1.278894        -0.467864         0.014753
 C         1.000114         0.759463         2.277857
 H         1.013526        -0.248690         5.075317
 H         0.754105        -2.246524         1.738769
 H        -0.055842        -2.556763         3.391982
 H        -1.802372        -0.660730         3.075054
 H        -1.279205        -0.970937         0.400663
 H        -1.794768         0.559076         1.153188
 H         0.192744         0.953445        -1.246653
 H         1.844012         1.501231        -0.285929
 H         2.056496         0.535153         2.256184
 H         0.845920         1.740569         2.626614
