19
Iteration:  1518
 O         0.235036        -0.025696         4.557252
 C         0.273992        -0.410798         3.196047
 C         0.403399        -1.801420         2.603384
 C        -0.911926        -0.972031         2.417296
 C        -0.992579        -0.040086         1.176290
 C         0.497102         0.317770         0.971440
 C         0.926724         0.847293        -0.322212
 O         1.129084        -0.498818        -0.015715
 C         1.014166         0.646243         2.403091
 H         0.004547        -0.791814         5.064770
 H         1.032871        -1.802769         1.688237
 H         0.163035        -2.787178         3.121038
 H        -1.741807        -1.344855         2.928270
 H        -1.602028        -0.353074         0.243387
 H        -1.359758         0.878706         1.639819
 H         0.085146         1.157431        -0.989262
 H         1.858925         1.570473        -0.343379
 H         2.112167         0.704256         2.533118
 H         0.596433         1.535805         2.829583
