19
Iteration:  3901
 O         0.241992         0.113586         4.541366
 C         0.296646        -0.382566         3.291024
 C         0.223261        -1.893430         2.963373
 C        -0.863528        -0.982596         2.492413
 C        -0.868779        -0.548009         1.038547
 C         0.446550         0.287579         0.901095
 C         0.627690         1.204581        -0.243489
 O         1.199600        -0.166996        -0.230671
 C         1.217295         0.391585         2.273111
 H         0.459940        -0.658454         5.062512
 H         1.007396        -2.356986         2.217329
 H        -0.123481        -2.518923         3.924931
 H        -1.758402        -1.013345         3.069863
 H        -0.978842        -1.256606         0.162132
 H        -1.759405         0.129823         0.976162
 H        -0.166690         1.244322        -0.957106
 H         1.305927         2.086272        -0.074561
 H         2.331839         0.210641         2.175622
 H         1.171352         1.497375         2.596817
