19
Iteration:  4304charge 0 multiplicity 1
 O         0.311787         0.001894         4.597897
 C         0.341023        -0.343527         3.176438
 C         0.283299        -1.863908         2.958934
 C        -0.861440        -0.921052         2.511085
 C        -0.879980        -0.520565         1.064736
 C         0.385598         0.198561         0.891034
 C         0.540169         1.122752        -0.182785
 O         1.369921        -0.183429        -0.192220
 C         1.045206         0.571612         2.189864
 H         0.492606        -0.787306         5.106892
 H         0.775045        -2.249923         2.050957
 H        -0.081949        -2.428611         3.815357
 H        -1.834597        -1.041268         3.041055
 H        -1.047966        -1.312140         0.343405
 H        -1.771604         0.153680         0.900002
 H        -0.174888         1.040580        -0.984560
 H         1.083973         2.001468        -0.027666
 H         2.163916         0.425161         2.039833
 H         0.757867         1.609490         2.632988
