19
Iteration:  4389charge 0 multiplicity 1
 O         0.188930        -0.157854         4.607484
 C         0.312052        -0.305732         3.128813
 C         0.491244        -1.834828         2.721172
 C        -0.798442        -1.013282         2.482831
 C        -0.983061        -0.270090         1.219656
 C         0.381193         0.327690         0.941657
 C         0.744701         0.941488        -0.291751
 O         1.208202        -0.387445        -0.048298
 C         0.976169         0.708028         2.276553
 H         0.582424         0.716201         4.883468
 H         1.160866        -2.076866         1.891274
 H         0.631621        -2.666071         3.338287
 H        -1.766894        -1.278120         2.968379
 H        -1.450136        -0.740528         0.259782
 H        -1.666405         0.551773         1.494321
 H        -0.021604         0.895478        -1.153728
 H         1.428317         1.770889        -0.360255
 H         2.035190         0.582600         2.201990
 H         0.729075         1.743101         2.511588
