19
Iteration:  1800charge 0 multiplicity 1
 O         0.287912        -0.248296         4.641797
 C         0.347721        -0.412430         3.282756
 C         0.222308        -1.783188         2.694501
 C        -0.948730        -0.743382         2.474743
 C        -1.015071        -0.230938         1.032992
 C         0.326740         0.333396         0.916277
 C         0.879424         0.915850        -0.337607
 O         1.328152        -0.394381         0.003628
 C         0.980547         0.708402         2.301217
 H         0.891212        -0.749650         5.173431
 H         0.961259        -2.062552         1.869924
 H         0.097185        -2.474834         3.543171
 H        -1.878593        -1.007433         3.033263
 H        -1.171269        -1.090796         0.419482
 H        -1.667810         0.703904         0.911224
 H         0.315676         0.934224        -1.350675
 H         1.714266         1.697091        -0.391173
 H         2.160796         0.617118         2.207728
 H         0.707792         1.683499         2.608902
