19
Iteration:  3274charge 0 multiplicity 1
 O         0.305342        -0.217587         4.676300
 C         0.302301        -0.363393         3.240322
 C         0.261047        -1.825805         2.736306
 C        -0.886879        -0.874193         2.531211
 C        -1.021386        -0.194341         1.144972
 C         0.348494         0.326404         0.896786
 C         0.982171         0.942642        -0.381129
 O         1.202259        -0.411848        -0.172567
 C         1.040007         0.680932         2.352539
 H        -0.483878         0.324046         4.915403
 H         0.919979        -2.116759         1.835772
 H         0.252679        -2.601247         3.557665
 H        -1.820149        -1.100722         2.917246
 H        -1.293246        -0.849620         0.360834
 H        -1.732202         0.642251         1.308141
 H         0.416916         1.149122        -1.323278
 H         1.922283         1.608835        -0.167331
 H         2.089404         0.412577         2.478767
 H         0.806131         1.709500         2.530746
