19
Iteration:   752charge 0 multiplicity 1
 O         0.349808        -0.250932         4.646983
 C         0.288416        -0.328865         3.192946
 C         0.117210        -1.721011         2.653744
 C        -1.052704        -0.778466         2.569835
 C        -0.959481        -0.268208         1.066489
 C         0.419430         0.355891         0.928766
 C         0.900412         0.927333        -0.384091
 O         1.280001        -0.403732         0.041763
 C         1.054930         0.616506         2.328557
 H         1.267875        -0.351977         4.840588
 H         0.542493        -2.057685         1.698594
 H         0.270759        -2.439445         3.409953
 H        -1.982643        -0.982396         3.062742
 H        -0.954611        -1.166006         0.408402
 H        -1.747190         0.441700         0.709464
 H         0.197478         0.810860        -1.182954
 H         1.835193         1.585187        -0.373282
 H         2.111855         0.737128         2.191372
 H         0.665759         1.679168         2.675599
