19
Iteration:   700charge 0 multiplicity 1
 O         0.367142         0.038242         4.528526
 C         0.315074        -0.478472         3.136159
 C         0.069104        -1.954126         2.893447
 C        -0.980486        -0.910092         2.519636
 C        -1.066650        -0.249658         1.146143
 C         0.475963         0.282743         0.828325
 C         0.995185         1.102841        -0.318124
 O         1.321177        -0.325482        -0.071225
 C         0.994722         0.531390         2.280073
 H         0.293948        -0.741539         5.078840
 H         0.679241        -2.447011         2.192947
 H        -0.184135        -2.626994         3.679409
 H        -1.731115        -0.831839         3.281286
 H        -1.492077        -0.809900         0.370288
 H        -1.670771         0.749921         1.297536
 H         0.272046         1.148582        -1.069749
 H         1.788640         1.828608        -0.185671
 H         2.104505         0.294474         2.183709
 H         0.804449         1.562468         2.743602
