19
Iteration:  4947
 O         0.154908        -0.058597         4.561460
 C         0.342944        -0.378662         3.173133
 C         0.589452        -1.854741         2.907848
 C        -0.686854        -1.142071         2.528198
 C        -0.923051        -0.610012         1.134548
 C         0.325469         0.258265         0.914612
 C         0.546143         1.157114        -0.248130
 O         1.267725        -0.163714        -0.158174
 C         0.910870         0.702086         2.233703
 H         0.494112         0.848007         4.536771
 H         1.252472        -2.114364         2.084697
 H         0.809569        -2.427430         3.774988
 H        -1.534900        -1.172575         3.147899
 H        -1.027258        -1.462233         0.301060
 H        -1.787181         0.083436         1.099306
 H        -0.230635         1.165255        -1.128060
 H         1.023744         2.148083        -0.265815
 H         1.930863         0.630845         2.491531
 H         0.551908         1.692710         2.501457
