19
Iteration:  4844
 O         0.371396        -0.107700         4.633187
 C         0.356111        -0.355905         3.253333
 C         0.515504        -1.765645         2.772997
 C        -0.795453        -1.162029         2.518054
 C        -1.041445        -0.557748         1.087139
 C         0.257127         0.315814         0.883535
 C         0.666729         1.092829        -0.336820
 O         1.334977        -0.211216        -0.025017
 C         0.820103         0.691286         2.231715
 H         0.217540         0.890989         4.641799
 H         1.383432        -1.985837         2.080895
 H         0.407429        -2.472402         3.577830
 H        -1.647054        -1.394181         3.203605
 H        -0.970941        -1.263802         0.306684
 H        -1.997530         0.001406         1.041429
 H         0.143640         1.056669        -1.273557
 H         1.295165         1.996882        -0.183409
 H         1.835882         1.097296         2.068025
 H         0.199401         1.489295         2.616208
