19
Iteration:  1483
 O         0.395584        -0.208864         4.627577
 C         0.292911        -0.337398         3.219234
 C         0.313114        -1.712357         2.736347
 C        -0.977743        -0.876953         2.477619
 C        -1.033447        -0.207856         1.050797
 C         0.315866         0.406137         0.868739
 C         1.071122         0.904301        -0.339461
 O         1.151573        -0.440971         0.065632
 C         0.973520         0.648469         2.286858
 H        -0.158393        -0.915304         4.933077
 H         0.923144        -2.016165         1.877081
 H         0.151915        -2.574351         3.318890
 H        -1.888614        -1.140373         3.078625
 H        -1.424475        -0.858159         0.237052
 H        -1.718550         0.614080         1.079063
 H         0.422498         1.151233        -1.208787
 H         2.067978         1.527809        -0.176501
 H         2.145737         0.527707         2.262003
 H         0.767863         1.611232         2.637803
