19
Iteration:  3856
 O         0.301934         0.003822         4.538372
 C         0.314689        -0.355394         3.169846
 C         0.172356        -1.946351         3.000055
 C        -0.921948        -1.000453         2.535158
 C        -0.965657        -0.501026         1.134844
 C         0.452667         0.175529         0.855123
 C         0.683154         1.180022        -0.237838
 O         1.310357        -0.117724        -0.224059
 C         1.098382         0.485234         2.255185
 H         0.919146         0.671878         4.767385
 H         0.938766        -2.162697         2.202712
 H        -0.107900        -2.701400         3.948753
 H        -1.897564        -1.091291         3.096835
 H        -0.981345        -1.343285         0.402732
 H        -1.770714         0.220617         0.910942
 H         0.014628         1.355365        -1.074273
 H         1.453097         1.971357         0.082056
 H         2.209880         0.297768         2.263982
 H         0.927401         1.577715         2.539233
