19
Iteration:  2397
 O         0.124212         0.010852         4.624742
 C         0.328085        -0.484001         3.284841
 C         0.148960        -1.979084         2.916151
 C        -0.942791        -0.815213         2.467013
 C        -0.847709        -0.163332         1.062331
 C         0.518606         0.322262         0.942101
 C         0.755376         1.060226        -0.324471
 O         1.254072        -0.259631        -0.238621
 C         1.188972         0.346261         2.283179
 H         0.912920        -0.015478         5.212191
 H         1.014988        -2.345691         2.193139
 H        -0.355308        -2.618679         3.665248
 H        -1.887616        -1.243484         2.987009
 H        -1.187555        -0.924938         0.338297
 H        -1.572972         0.588121         0.974961
 H        -0.225190         1.122939        -0.949653
 H         1.422387         1.993879        -0.322063
 H         2.257638         0.067906         2.180165
 H         1.276780         1.338606         2.689142
