19
Iteration:  1360charge 0 multiplicity 1
 O         0.065344         0.038475         4.543268
 C         0.330712        -0.424816         3.254825
 C         0.178560        -1.970691         2.800039
 C        -0.894744        -0.885301         2.542588
 C        -0.937964        -0.242622         1.164741
 C         0.454468         0.309172         0.905953
 C         0.899622         1.114635        -0.185705
 O         1.189631        -0.331717        -0.271601
 C         1.207891         0.364807         2.297623
 H         0.852465         0.472556         4.843922
 H         0.920182        -2.231411         2.045019
 H         0.233382        -2.782317         3.565563
 H        -1.828266        -0.936440         3.151128
 H        -1.266585        -0.859487         0.347788
 H        -1.661682         0.596892         1.160460
 H         0.157789         1.504459        -1.013218
 H         1.819042         1.665601        -0.015071
 H         2.301423         0.115132         2.345811
 H         1.024571         1.385359         2.579287
