19
Iteration:  4652charge 0 multiplicity 1
 O         0.300393        -0.124192         4.589871
 C         0.357925        -0.340190         3.186053
 C         0.350223        -1.760482         2.872612
 C        -0.838513        -1.010153         2.492423
 C        -0.845196        -0.549332         1.110273
 C         0.383191         0.265154         0.894587
 C         0.548430         1.064575        -0.316657
 O         1.290504        -0.187039        -0.123411
 C         0.993053         0.605524         2.274626
 H         0.383364         0.798005         4.873074
 H         1.078356        -2.246470         2.261654
 H         0.226589        -2.387475         3.740144
 H        -1.757404        -1.352517         2.978611
 H        -0.986468        -1.308070         0.260615
 H        -1.723873         0.064938         1.105914
 H        -0.284427         1.236441        -1.028832
 H         1.167685         2.047170        -0.074392
 H         2.080992         0.655317         2.372863
 H         0.484214         1.590436         2.600441
