19
Iteration:   214charge 0 multiplicity 1
 O         0.420636        -0.110247         4.613233
 C         0.222400        -0.368312         3.264955
 C         0.121132        -1.801717         2.840062
 C        -1.056759        -0.798465         2.556546
 C        -0.978711        -0.330647         1.029354
 C         0.424843         0.257408         0.863891
 C         0.895867         0.938802        -0.390028
 O         1.397564        -0.265214        -0.050621
 C         1.004215         0.562182         2.292406
 H         0.852635        -0.908040         4.896695
 H         0.522499        -2.134424         1.900040
 H        -0.106298        -2.459989         3.601970
 H        -2.023995        -0.858738         3.068028
 H        -1.297012        -1.062166         0.354584
 H        -1.676258         0.518721         1.022555
 H         0.171927         1.072942        -1.257944
 H         1.519818         1.804611        -0.424729
 H         2.065595         0.292530         2.442612
 H         0.799022         1.657485         2.636033
