19
Iteration:   861charge 0 multiplicity 1
 O         0.215401        -0.146212         4.575010
 C         0.357728        -0.368877         3.186620
 C         0.225945        -1.830308         2.786653
 C        -1.001654        -0.837542         2.531587
 C        -1.016435        -0.235145         1.158197
 C         0.388387         0.317597         0.915319
 C         0.933455         1.002189        -0.322121
 O         1.280434        -0.382840        -0.129460
 C         1.103774         0.572779         2.276395
 H         0.863324        -0.665272         5.138542
 H         0.768698        -2.431229         2.153655
 H         0.079957        -2.363366         3.739931
 H        -1.836357        -0.753685         3.226250
 H        -1.271072        -0.983837         0.392925
 H        -1.777074         0.502104         1.162313
 H         0.139609         1.272806        -1.020103
 H         1.791070         1.686536        -0.133524
 H         2.120180         0.551926         2.185878
 H         0.798121         1.621196         2.352923
