19
Iteration:   263
 O         0.187747        -0.007797         4.559455
 C         0.361275        -0.432941         3.196419
 C         0.159359        -1.860045         2.828058
 C        -0.916847        -0.844956         2.509087
 C        -0.960547        -0.288567         1.094929
 C         0.475084         0.280287         0.892505
 C         0.861396         1.066172        -0.262966
 O         1.236711        -0.401941        -0.132219
 C         1.079677         0.528333         2.315368
 H         0.960665        -0.429262         5.026510
 H         0.810348        -2.139615         1.967581
 H         0.090025        -2.482503         3.773735
 H        -1.731353        -0.734730         3.190349
 H        -1.171055        -1.132793         0.287013
 H        -1.811781         0.450336         1.060289
 H         0.189802         1.283456        -1.061869
 H         1.695868         1.835807        -0.225880
 H         2.188839         0.408056         2.360297
 H         0.775451         1.538962         2.625865
