19
Iteration:  4182
 O         0.344384         0.007231         4.583358
 C         0.304590        -0.403267         3.200474
 C         0.397810        -1.903490         2.960816
 C        -0.856530        -0.974696         2.475168
 C        -0.868465        -0.405721         1.087669
 C         0.428757         0.283396         0.907159
 C         0.589491         1.141043        -0.324735
 O         1.206553        -0.242266        -0.162624
 C         1.018918         0.523818         2.330864
 H        -0.493831        -0.226735         4.936361
 H         1.236787        -2.166955         2.248777
 H         0.138216        -2.490447         3.892434
 H        -1.829597        -1.219731         2.863057
 H        -1.053717        -1.173310         0.271538
 H        -1.767545         0.187816         0.745966
 H        -0.025577         1.182594        -1.257498
 H         1.273171         1.973854        -0.264450
 H         2.116106         0.313638         2.215337
 H         0.929289         1.674558         2.692779
