19
Iteration:  4310charge 0 multiplicity 1
 O         0.323033        -0.006607         4.563687
 C         0.344135        -0.353063         3.140812
 C         0.264451        -1.829511         2.961490
 C        -0.844565        -0.921070         2.542015
 C        -0.930323        -0.526643         1.024822
 C         0.377282         0.167276         0.922202
 C         0.587524         1.102771        -0.225365
 O         1.352711        -0.162552        -0.170117
 C         0.993785         0.568188         2.263625
 H         0.769276        -0.748316         5.065674
 H         0.988800        -2.179359         2.229618
 H        -0.014941        -2.609245         3.714514
 H        -1.755486        -0.963372         3.097939
 H        -0.989526        -1.473081         0.361308
 H        -1.650765         0.260933         0.862161
 H        -0.258526         1.310017        -0.965585
 H         1.232596         2.047079        -0.213909
 H         2.043082         0.414206         2.163733
 H         0.826417         1.583930         2.553143
