19
Iteration:  3283charge 0 multiplicity 1
 O         0.331844        -0.232680         4.608186
 C         0.342738        -0.382094         3.228734
 C         0.259944        -1.806379         2.745511
 C        -0.915381        -0.830771         2.523793
 C        -1.017401        -0.199179         1.145977
 C         0.407810         0.376668         0.904029
 C         0.991147         0.898120        -0.403220
 O         1.214828        -0.428912        -0.091262
 C         0.962344         0.701166         2.333651
 H        -0.618166        -0.099211         4.838437
 H         0.664803        -2.223147         1.755645
 H         0.273697        -2.455302         3.631965
 H        -1.745364        -1.077390         3.126781
 H        -1.401359        -0.861605         0.380109
 H        -1.948446         0.474004         1.239127
 H         0.321763         1.297165        -1.115528
 H         1.875943         1.594247        -0.140032
 H         2.069694         0.603317         2.163184
 H         0.900295         1.658398         2.831710
