19
Iteration:  2598
 O         0.225370        -0.013979         4.565967
 C         0.282756        -0.452794         3.225766
 C         0.158521        -1.856823         2.773835
 C        -0.934727        -0.876391         2.532514
 C        -1.040881        -0.289351         1.139711
 C         0.384639         0.307343         0.931097
 C         0.856641         0.984480        -0.306401
 O         1.380721        -0.271843        -0.105294
 C         1.123100         0.491590         2.285199
 H         1.129524        -0.274408         4.913989
 H         0.722248        -2.193942         1.900106
 H         0.207713        -2.577228         3.538248
 H        -1.971546        -1.001848         3.071426
 H        -1.351218        -0.888770         0.286005
 H        -1.698493         0.497622         1.260168
 H         0.098874         1.217102        -1.103359
 H         1.691983         1.815365        -0.428568
 H         2.169759         0.253386         2.210222
 H         0.847788         1.454437         2.725758
