19
Iteration:   604charge 0 multiplicity 1
 O         0.349390        -0.079565         4.513947
 C         0.401427        -0.478091         3.190854
 C         0.042557        -1.921220         2.927878
 C        -0.966923        -0.914800         2.555172
 C        -0.983131        -0.246928         1.148695
 C         0.445307         0.306900         0.843667
 C         0.886326         1.075738        -0.332197
 O         1.279915        -0.250102        -0.066737
 C         1.103617         0.468535         2.242192
 H        -0.417003         0.507600         4.615680
 H         0.614534        -2.609836         2.281098
 H        -0.282766        -2.414033         3.795253
 H        -1.869972        -0.719517         3.131981
 H        -1.257662        -0.952456         0.385620
 H        -1.573331         0.599187         0.993436
 H         0.420715         1.175332        -1.312324
 H         1.586114         1.876607        -0.136838
 H         2.215004         0.366556         2.193045
 H         0.861234         1.381799         2.705827
