19
Iteration:  1146charge 0 multiplicity 1
 O         0.183072        -0.154328         4.664481
 C         0.309241        -0.373661         3.254636
 C         0.342429        -1.793678         2.678601
 C        -0.852141        -0.851240         2.399321
 C        -1.029685        -0.059841         1.153915
 C         0.503175         0.412994         0.951585
 C         0.905232         0.857140        -0.396122
 O         1.146846        -0.497468        -0.036617
 C         1.006204         0.598778         2.353260
 H         0.814596        -0.677718         5.219282
 H         1.006877        -1.959467         1.878078
 H        -0.026062        -2.712697         3.139678
 H        -1.743539        -1.172834         2.846730
 H        -1.244393        -0.471394         0.163474
 H        -1.663805         0.760711         1.432899
 H         0.294746         1.171709        -1.222583
 H         1.875295         1.311184        -0.483463
 H         2.043467         0.477291         2.304079
 H         0.650074         1.635422         2.664573
