19
Iteration:   826
 O         0.206797         0.049014         4.611532
 C         0.301886        -0.444972         3.248818
 C         0.392100        -1.798221         2.595541
 C        -0.933187        -0.999820         2.396060
 C        -1.070414        -0.115136         1.130081
 C         0.449390         0.428642         0.952654
 C         0.958492         0.886879        -0.289787
 O         1.086995        -0.467503        -0.010090
 C         1.102013         0.528421         2.333548
 H         0.676198        -0.522354         5.292910
 H         1.227960        -1.959025         1.856699
 H         0.248459        -2.588227         3.350832
 H        -1.812498        -1.274781         2.897830
 H        -1.367847        -0.558489         0.105255
 H        -1.819823         0.598712         1.381314
 H         0.244740         1.232903        -1.069590
 H         1.881689         1.585921        -0.320826
 H         2.145588         0.286879         2.444546
 H         0.967658         1.488110         2.760203
