19
Iteration:  2245
 O         0.319507        -0.077688         4.541072
 C         0.261830        -0.398875         3.239850
 C         0.182757        -1.824873         2.734785
 C        -0.971116        -0.940670         2.475286
 C        -0.950254        -0.159543         1.165220
 C         0.521943         0.322538         0.883112
 C         0.805434         0.996655        -0.409011
 O         1.293722        -0.380828         0.017919
 C         1.027768         0.562322         2.314668
 H         0.764354        -0.734270         5.153106
 H         0.674287        -2.271399         1.841516
 H         0.046960        -2.619744         3.481718
 H        -1.931608        -1.009477         3.059466
 H        -1.113464        -0.890503         0.355662
 H        -1.536225         0.734023         1.331885
 H        -0.095970         1.069379        -1.079726
 H         1.556011         1.826376        -0.472001
 H         2.057053         0.392304         2.488693
 H         0.736205         1.573210         2.771846
