19
Iteration:  4229
 O         0.268536         0.120929         4.456681
 C         0.326767        -0.417929         3.240790
 C         0.408469        -1.877383         2.934669
 C        -0.819996        -1.045092         2.529614
 C        -0.961060        -0.524657         1.134329
 C         0.376224         0.224087         0.830801
 C         0.685778         1.218516        -0.161425
 O         1.220196        -0.197372        -0.230941
 C         1.093211         0.436368         2.281249
 H        -0.582471        -0.021124         4.952369
 H         1.079289        -2.207437         2.116428
 H         0.239610        -2.497668         3.905276
 H        -1.752263        -1.141937         3.196441
 H        -1.301576        -1.107698         0.375894
 H        -1.839858         0.234516         1.042559
 H        -0.060698         1.535130        -0.912722
 H         1.397338         1.985550         0.189624
 H         2.171825         0.179714         2.307376
 H         1.029610         1.524171         2.447738
