19
Iteration:  1630charge 0 multiplicity 1
 O         0.295988        -0.063551         4.537584
 C         0.317442        -0.448774         3.220022
 C        -0.037704        -1.955157         2.986956
 C        -0.952430        -0.819509         2.537792
 C        -0.931000        -0.377919         1.058532
 C         0.423825         0.288932         0.829112
 C         0.828312         1.175079        -0.276963
 O         1.355541        -0.176955        -0.092121
 C         1.134875         0.373932         2.214943
 H         1.196665         0.051229         4.935087
 H         0.678032        -2.462499         2.245238
 H        -0.266567        -2.572109         3.854715
 H        -2.007174        -0.615648         3.035106
 H        -1.033839        -1.333535         0.471663
 H        -1.674123         0.411600         0.824217
 H         0.055767         1.310779        -1.120716
 H         1.517261         2.003176        -0.187211
 H         2.137498         0.192046         2.066829
 H         1.078681         1.449048         2.625466
