19
Iteration:  3800
 O         0.303185        -0.114633         4.635531
 C         0.352243        -0.320998         3.194223
 C         0.310606        -1.823218         2.813241
 C        -0.903898        -0.932944         2.590096
 C        -1.000697        -0.354182         1.191938
 C         0.392760         0.302064         0.881396
 C         0.777345         1.018974        -0.346138
 O         1.325606        -0.285689        -0.167127
 C         1.009037         0.569626         2.228009
 H        -0.618898        -0.153820         4.949025
 H         0.863421        -2.181019         1.887365
 H         0.294853        -2.490759         3.794514
 H        -1.774065        -1.360386         3.151746
 H        -1.282803        -0.990486         0.350513
 H        -1.725467         0.473693         1.120700
 H         0.015780         1.090578        -1.199665
 H         1.416386         1.930577        -0.332426
 H         2.101172         0.387056         2.229697
 H         0.916758         1.611307         2.644840
