19
Iteration:  3847
 O         0.338497         0.010187         4.529576
 C         0.313325        -0.441249         3.251190
 C         0.231098        -1.912914         2.939348
 C        -0.961368        -0.978701         2.472299
 C        -0.911763        -0.465246         1.103941
 C         0.447581         0.242080         0.937272
 C         0.671427         1.142244        -0.233215
 O         1.286005        -0.160392        -0.183761
 C         1.061385         0.501431         2.244579
 H         0.744796         0.859891         4.558429
 H         0.911802        -2.603326         2.338152
 H        -0.138544        -2.454568         3.931525
 H        -1.930796        -1.068428         2.955058
 H        -0.940769        -1.267457         0.251498
 H        -1.856901         0.107506         0.862772
 H        -0.110771         1.357313        -0.913361
 H         1.466690         1.921883        -0.169205
 H         2.174566         0.313518         2.174735
 H         0.976488         1.609097         2.614480
