19
Iteration:  1219charge 0 multiplicity 1
 O         0.306348         0.066272         4.480099
 C         0.355140        -0.514736         3.149600
 C         0.050998        -1.950718         2.807713
 C        -0.966402        -0.907786         2.513712
 C        -0.997519        -0.273972         1.181651
 C         0.412002         0.380870         0.907840
 C         0.916976         1.048509        -0.318313
 O         1.331723        -0.294414        -0.007765
 C         1.090659         0.464969         2.301868
 H         0.987746        -0.302316         5.028689
 H         0.498693        -2.360263         1.968442
 H        -0.318561        -2.677270         3.464914
 H        -1.876818        -0.870420         3.065646
 H        -1.386612        -0.971029         0.337651
 H        -1.662201         0.623080         1.208709
 H         0.055945         1.123874        -1.097621
 H         1.599492         1.860805        -0.418952
 H         2.261570         0.302453         2.259628
 H         0.800736         1.383158         2.820422
