19
Iteration:  1561charge 0 multiplicity 1
 O         0.212084        -0.092292         4.574750
 C         0.378616        -0.452536         3.260380
 C         0.197355        -1.881525         2.816994
 C        -0.870381        -0.851823         2.399935
 C        -1.061713        -0.185732         1.068811
 C         0.351054         0.422320         0.901650
 C         0.890921         0.963127        -0.327158
 O         1.228125        -0.324188         0.012520
 C         1.127451         0.518353         2.302822
 H         0.686359        -0.679202         5.168664
 H         0.999391        -2.170233         2.125661
 H         0.066070        -2.649736         3.636629
 H        -1.812643        -1.038252         2.811902
 H        -1.367735        -0.825347         0.193771
 H        -1.711876         0.564205         1.339259
 H         0.276323         1.008540        -1.265146
 H         1.807960         1.676790        -0.444989
 H         2.228832         0.289234         2.060678
 H         1.123382         1.528941         2.624220
