19
Iteration:  3070charge 0 multiplicity 1
 O         0.240513         0.141997         4.633859
 C         0.289770        -0.498496         3.330155
 C         0.229699        -1.872135         2.752550
 C        -0.933222        -0.943449         2.504451
 C        -0.885225        -0.324434         1.099584
 C         0.485068         0.307237         0.930401
 C         0.879768         1.108305        -0.241878
 O         1.142932        -0.330517        -0.278197
 C         1.104949         0.461761         2.317252
 H        -0.103522        -0.550311         5.187100
 H         1.118804        -2.008660         2.085499
 H        -0.095999        -2.789806         3.188988
 H        -1.879095        -1.274610         2.882142
 H        -1.300444        -1.097004         0.307700
 H        -1.533962         0.613082         0.860537
 H         0.033084         1.376888        -0.823935
 H         1.767472         1.674405        -0.065394
 H         2.145284         0.089906         2.386281
 H         1.168628         1.548698         2.711730
