19
Iteration:  2431charge 0 multiplicity 1
 O         0.253344        -0.106774         4.560161
 C         0.255445        -0.366085         3.203913
 C         0.160812        -1.823902         2.800217
 C        -1.025237        -0.801103         2.625018
 C        -0.938600        -0.352970         1.112026
 C         0.482725         0.208649         0.882962
 C         0.983776         1.082955        -0.192413
 O         1.209840        -0.314195        -0.170883
 C         1.070052         0.564796         2.214285
 H         1.018532        -0.555008         5.021268
 H         0.722512        -2.255023         1.918422
 H         0.194734        -2.508085         3.683935
 H        -2.019627        -1.015895         3.014272
 H        -1.020579        -1.121159         0.343350
 H        -1.581868         0.441574         0.872275
 H         0.179702         1.436157        -0.975072
 H         1.752575         1.790444         0.180092
 H         2.111688         0.267746         2.111961
 H         0.863622         1.531940         2.570727
