19
Iteration:  3871
 O         0.207248         0.032761         4.599839
 C         0.322958        -0.421979         3.283531
 C         0.248437        -1.885258         2.956148
 C        -0.945629        -0.929242         2.630582
 C        -0.914944        -0.573389         1.089405
 C         0.401694         0.192052         0.815526
 C         0.721247         1.217856        -0.216412
 O         1.358270        -0.104128        -0.293356
 C         1.075451         0.403671         2.174790
 H         1.152773         0.237629         4.771963
 H         0.628386        -2.483427         2.116136
 H         0.255112        -2.423312         3.867462
 H        -1.800238        -0.845451         3.234114
 H        -1.380203        -1.344960         0.356205
 H        -1.768281         0.194137         1.037709
 H        -0.015250         1.363027        -1.007756
 H         1.304520         2.070780         0.048141
 H         2.171313         0.221892         2.138677
 H         0.999167         1.533870         2.449414
