19
Iteration:  3697
 O         0.343541        -0.161580         4.540409
 C         0.365754        -0.314898         3.209800
 C         0.325002        -1.773134         2.615375
 C        -0.910707        -0.942140         2.603268
 C        -1.090977        -0.235022         1.097320
 C         0.382968         0.277245         0.922050
 C         0.874586         0.889374        -0.315737
 O         1.322206        -0.431945         0.074620
 C         0.821089         0.808658         2.297374
 H         1.013243        -0.666087         4.979279
 H         0.768286        -1.983005         1.676025
 H         0.529320        -2.653637         3.286915
 H        -1.801666        -1.374538         3.121830
 H        -1.444975        -0.912660         0.276204
 H        -1.608597         0.714590         1.127180
 H         0.213296         0.996309        -1.275306
 H         1.839006         1.501725        -0.198525
 H         1.891720         1.058525         2.361506
 H         0.242837         1.714198         2.383231
