19
Iteration:  2981
 O         0.427437        -0.205715         4.599813
 C         0.280537        -0.327291         3.159502
 C         0.152705        -1.790267         2.554301
 C        -0.998356        -0.875538         2.480983
 C        -0.953271        -0.186643         1.119118
 C         0.421083         0.378177         0.971340
 C         0.876857         0.856464        -0.302335
 O         1.324849        -0.457503         0.128682
 C         0.903273         0.721014         2.334273
 H         1.345926        -0.439645         4.737129
 H         0.750872        -1.977203         1.631157
 H         0.069121        -2.555118         3.411231
 H        -1.967727        -1.191656         2.985218
 H        -1.310846        -0.987565         0.356109
 H        -1.781433         0.528504         0.799083
 H         0.205365         0.814320        -1.119891
 H         1.506823         1.785323        -0.352197
 H         1.999454         0.950692         2.414326
 H         0.462743         1.789550         2.412868
