19
Iteration:  3803
 O         0.316172        -0.100803         4.637237
 C         0.343252        -0.354950         3.202733
 C         0.312160        -1.837416         2.813484
 C        -0.926974        -0.942080         2.585252
 C        -0.979303        -0.369754         1.196721
 C         0.389755         0.322695         0.891034
 C         0.781440         1.033505        -0.358850
 O         1.315017        -0.272329        -0.162441
 C         1.021979         0.578526         2.221271
 H        -0.601602        -0.082661         4.884635
 H         0.873691        -2.192898         1.941231
 H         0.098591        -2.430857         3.812996
 H        -1.782418        -1.421808         3.101836
 H        -1.341825        -1.110513         0.367011
 H        -1.726747         0.465447         1.034064
 H         0.017053         1.024633        -1.077016
 H         1.442946         1.923458        -0.369961
 H         2.132927         0.382512         2.209963
 H         0.997902         1.670950         2.603435
