19
Iteration:  1895
 O         0.179987        -0.215225         4.598513
 C         0.276472        -0.286566         3.205230
 C         0.255873        -1.811773         2.748198
 C        -0.901053        -0.922118         2.474385
 C        -0.984458        -0.171872         1.098829
 C         0.460856         0.426578         0.967831
 C         0.884537         0.917017        -0.356172
 O         1.211217        -0.427464        -0.062835
 C         1.087932         0.625893         2.350459
 H         1.036434        -0.594773         4.853392
 H         1.006699        -2.135121         1.907421
 H         0.241609        -2.442817         3.671379
 H        -1.916672        -1.038236         2.928186
 H        -1.163476        -1.003040         0.396555
 H        -1.771547         0.627703         1.270632
 H         0.139347         1.149860        -1.124213
 H         1.696378         1.666031        -0.595206
 H         2.140177         0.458611         2.332979
 H         0.868328         1.688297         2.650016
