19
Iteration:  3234
 O         0.212954        -0.008487         4.534468
 C         0.256886        -0.412496         3.204511
 C         0.281074        -1.908410         2.781969
 C        -0.923355        -0.959761         2.412697
 C        -0.962789        -0.216029         1.130045
 C         0.466743         0.314157         0.990159
 C         0.787196         1.048492        -0.216685
 O         1.209169        -0.345023        -0.142418
 C         1.149189         0.458742         2.337918
 H         0.810157         0.732417         4.728709
 H         1.000924        -2.337032         2.136037
 H        -0.021450        -2.590062         3.594181
 H        -1.771209        -1.098912         3.112618
 H        -1.382628        -0.780891         0.246486
 H        -1.651313         0.643561         1.068886
 H         0.128846         1.035826        -1.101974
 H         1.539075         1.788327        -0.097021
 H         2.218772         0.259656         2.295584
 H         1.215744         1.524970         2.777976
