19
Iteration:  1933
 O         0.391645        -0.014492         4.615373
 C         0.290479        -0.457989         3.174317
 C         0.004089        -1.883430         2.778554
 C        -1.005831        -0.821870         2.501337
 C        -1.003085        -0.352921         1.113294
 C         0.445310         0.220372         0.883305
 C         0.861230         1.044600        -0.294640
 O         1.452352        -0.215481        -0.100704
 C         0.993858         0.531786         2.295283
 H         0.817443        -0.741353         5.067309
 H         0.595319        -2.269373         2.023053
 H        -0.103130        -2.555526         3.604062
 H        -1.808562        -0.810787         3.184387
 H        -1.159714        -1.228158         0.460525
 H        -1.688155         0.445552         0.870093
 H        -0.049587         0.995027        -1.006310
 H         1.476541         1.920195        -0.092078
 H         2.183590         0.500728         2.220757
 H         0.714006         1.486684         2.737421
