19
Iteration:  3729
 O         0.419160        -0.052533         4.490911
 C         0.312794        -0.396212         3.168063
 C         0.442541        -1.828188         2.661405
 C        -0.859673        -1.031117         2.447712
 C        -1.107671        -0.151767         1.098711
 C         0.285146         0.448502         0.924554
 C         0.912195         0.875229        -0.363797
 O         1.192733        -0.396613         0.258678
 C         0.879654         0.695785         2.308479
 H         0.244712        -0.814357         5.097752
 H         1.127900        -2.124886         1.909336
 H         0.285825        -2.596752         3.489629
 H        -1.684380        -1.673972         2.818795
 H        -1.418470        -0.832259         0.224277
 H        -1.963435         0.525750         1.233676
 H         0.378659         0.938967        -1.358838
 H         1.854485         1.505847        -0.480715
 H         1.971763         0.659614         2.217488
 H         0.541138         1.681667         2.647409
