19
Iteration:  3727charge 0 multiplicity 1
 O         0.414964        -0.061561         4.484596
 C         0.325056        -0.379716         3.170894
 C         0.431025        -1.819668         2.657538
 C        -0.847794        -1.031125         2.436112
 C        -1.115057        -0.147523         1.115380
 C         0.277224         0.455035         0.917777
 C         0.907022         0.872765        -0.355654
 O         1.208274        -0.405258         0.256087
 C         0.870607         0.687275         2.305496
 H         0.293219        -0.803372         5.137419
 H         1.161739        -2.188139         1.897791
 H         0.317129        -2.603923         3.483880
 H        -1.723758        -1.613247         2.804587
 H        -1.415162        -0.888613         0.262209
 H        -1.982824         0.561999         1.222872
 H         0.424295         0.928054        -1.289170
 H         1.804282         1.520245        -0.445072
 H         1.984916         0.633820         2.260384
 H         0.495699         1.707671         2.576482
