19
Iteration:  3892charge 0 multiplicity 1
 O         0.219495         0.089675         4.552271
 C         0.324030        -0.415581         3.240581
 C         0.223968        -1.886944         3.012182
 C        -0.861537        -0.935942         2.550843
 C        -0.916179        -0.474542         1.077149
 C         0.403817         0.235326         0.876938
 C         0.662891         1.173854        -0.214877
 O         1.273570        -0.121907        -0.276420
 C         1.157505         0.393042         2.211030
 H         0.663328        -0.572339         5.077285
 H         1.042551        -2.239227         2.318798
 H        -0.041581        -2.670473         3.715765
 H        -1.709539        -1.122056         3.143011
 H        -0.942727        -1.497763         0.501476
 H        -1.848772         0.072033         0.733101
 H        -0.085302         1.295477        -0.998660
 H         1.264429         2.044957        -0.039165
 H         2.237413         0.078415         2.227947
 H         1.101360         1.495104         2.577143
