19
Iteration:  3068charge 0 multiplicity 1
 O         0.232256         0.129845         4.632911
 C         0.293962        -0.484877         3.326271
 C         0.251211        -1.854667         2.740176
 C        -0.941157        -0.931222         2.493303
 C        -0.893322        -0.312965         1.102220
 C         0.485588         0.304561         0.940671
 C         0.871875         1.089868        -0.249537
 O         1.145204        -0.324919        -0.270807
 C         1.109746         0.454503         2.328100
 H        -0.104941        -0.538415         5.239129
 H         1.142436        -2.065657         2.016740
 H        -0.089201        -2.852392         3.196973
 H        -1.938538        -1.263299         2.933251
 H        -1.271398        -1.157173         0.366473
 H        -1.577149         0.592004         0.847224
 H         0.005654         1.407267        -0.806082
 H         1.849097         1.590303        -0.043086
 H         2.175541         0.110814         2.337955
 H         1.139197         1.548444         2.664598
