19
Iteration:   776charge 0 multiplicity 1
 O         0.176971        -0.272100         4.575525
 C         0.374619        -0.336459         3.221594
 C         0.284464        -1.831769         2.679201
 C        -0.859461        -0.826613         2.522625
 C        -1.039517        -0.103576         1.160783
 C         0.383963         0.361536         0.900776
 C         0.909789         0.880886        -0.374920
 O         1.265717        -0.460998         0.029206
 C         1.008988         0.702720         2.295321
 H         1.033005        -0.283689         5.056521
 H         0.660634        -2.265143         1.826742
 H         0.027497        -2.552720         3.470911
 H        -1.814608        -0.786775         3.105531
 H        -1.339936        -0.812038         0.435808
 H        -1.846936         0.750367         1.191748
 H         0.245707         0.933512        -1.217855
 H         1.825422         1.440476        -0.399225
 H         2.135845         0.739582         2.113431
 H         0.739717         1.819070         2.604988
