19
Iteration:   516charge 0 multiplicity 1
 O         0.181146        -0.152800         4.494476
 C         0.433116        -0.415075         3.147070
 C         0.278372        -1.893317         2.790908
 C        -0.886170        -0.943954         2.445115
 C        -1.018362        -0.111178         1.173105
 C         0.382626         0.409740         0.913114
 C         0.909709         0.925305        -0.360545
 O         1.225051        -0.428449         0.103599
 C         1.025912         0.645185         2.266858
 H         0.951848         0.244811         4.930496
 H         0.744693        -2.431739         1.984157
 H         0.101140        -2.570047         3.658435
 H        -1.868448        -0.894523         2.983141
 H        -1.536892        -0.703967         0.437438
 H        -1.583364         0.746910         1.449451
 H         0.096804         0.965887        -1.086449
 H         1.722490         1.690810        -0.612769
 H         2.165894         0.596311         2.232402
 H         0.708377         1.668775         2.672525
