19
Iteration:  2198
 O         0.181475        -0.175513         4.606061
 C         0.338683        -0.379679         3.165365
 C         0.380521        -1.777176         2.588851
 C        -0.874013        -0.874899         2.512614
 C        -1.103923        -0.177719         1.176867
 C         0.371178         0.386987         0.887335
 C         1.118434         0.955684        -0.250388
 O         1.042113        -0.500802         0.025151
 C         0.964784         0.689331         2.268269
 H         1.107167        -0.252132         4.886143
 H         1.030218        -1.981354         1.704954
 H         0.555712        -2.559710         3.404892
 H        -1.680676        -1.142033         3.145547
 H        -1.411470        -0.895640         0.441143
 H        -1.642739         0.676061         1.403423
 H         0.668585         1.122121        -1.256959
 H         2.282036         1.214679        -0.229798
 H         2.019459         0.599984         2.350685
 H         0.633219         1.587651         2.591106
