19
Iteration:  4986
 O         0.329217         0.085281         4.585912
 C         0.251523        -0.326327         3.210786
 C         0.590685        -1.846129         2.881524
 C        -0.738109        -1.217773         2.467302
 C        -0.917852        -0.649761         1.086773
 C         0.311026         0.286481         0.847069
 C         0.547923         1.127398        -0.326574
 O         1.298838        -0.143141        -0.115741
 C         0.823397         0.726853         2.335088
 H         0.137846        -0.733291         5.127192
 H         1.283896        -2.023246         2.055973
 H         0.758632        -2.556277         3.752018
 H        -1.730752        -1.480448         2.953102
 H        -0.907237        -1.450080         0.434333
 H        -1.931063        -0.210436         1.079956
 H        -0.189243         1.072632        -1.048415
 H         1.170937         2.018876        -0.104106
 H         1.972241         0.765772         2.281817
 H         0.473429         1.750048         2.641698
