19
Iteration:    81
 O         0.310618         0.023074         4.495236
 C         0.358374        -0.510565         3.174945
 C         0.152579        -1.915891         2.705541
 C        -0.871414        -0.881937         2.424188
 C        -0.982631        -0.140651         1.131687
 C         0.438865         0.369748         0.921551
 C         0.816578         0.940480        -0.327787
 O         1.258980        -0.395429         0.170084
 C         1.062509         0.588255         2.277103
 H         0.758903        -0.617203         5.038372
 H         0.711871        -2.340278         1.842671
 H        -0.345093        -2.608639         3.472140
 H        -1.818768        -1.049661         2.953835
 H        -1.395384        -0.723706         0.334032
 H        -1.823828         0.680921         1.268739
 H         0.226836         0.728236        -1.219227
 H         1.563822         1.890192        -0.476786
 H         2.215180         0.520064         2.342877
 H         0.606754         1.510609         2.839781
