19
Iteration:   354
 O         0.176385        -0.058333         4.635182
 C         0.310500        -0.379198         3.297552
 C         0.174505        -1.854510         2.890583
 C        -0.944908        -0.790943         2.562214
 C        -0.965466        -0.364757         1.105970
 C         0.487055         0.265606         0.832399
 C         0.914407         1.057607        -0.252086
 O         1.218508        -0.297051        -0.257691
 C         1.118981         0.502278         2.222507
 H         0.834134        -0.590923         5.108314
 H         0.751113        -2.218182         2.022408
 H         0.028035        -2.501692         3.748351
 H        -1.924955        -0.856311         3.132413
 H        -0.908398        -1.304726         0.418189
 H        -1.776068         0.384224         0.934486
 H         0.208887         1.361477        -1.113853
 H         1.782620         1.697114        -0.214990
 H         2.208831         0.438444         2.263033
 H         0.836769         1.470893         2.473497
