19
Iteration:  3224
 O         0.167890         0.038204         4.525313
 C         0.319097        -0.489041         3.170204
 C         0.185593        -1.903176         2.811266
 C        -0.935930        -1.008976         2.490315
 C        -0.980321        -0.264177         1.172576
 C         0.467356         0.340010         0.949399
 C         0.814943         1.103717        -0.309099
 O         1.251674        -0.304924        -0.082669
 C         1.213735         0.461232         2.284124
 H         1.023282         0.541012         4.642902
 H         0.812648        -2.299729         2.084632
 H        -0.147630        -2.633698         3.545436
 H        -1.808057        -1.094286         3.213354
 H        -1.075837        -1.006355         0.304241
 H        -1.782352         0.494042         1.386768
 H         0.027129         1.384647        -1.041136
 H         1.511834         1.867442        -0.194133
 H         2.222369         0.085142         2.113386
 H         0.992319         1.476117         2.758882
