19
Iteration:  3612
 O         0.249654         0.112420         4.651606
 C         0.298081        -0.455491         3.228220
 C         0.275721        -1.922824         2.824369
 C        -0.948380        -1.014616         2.556627
 C        -1.040011        -0.329418         1.162187
 C         0.471995         0.222749         0.891342
 C         0.808861         1.114468        -0.206258
 O         1.320132        -0.241407        -0.303885
 C         1.147271         0.415299         2.226935
 H        -0.712377         0.401505         4.713894
 H         0.874083        -2.429873         2.126783
 H         0.008710        -2.403037         3.762490
 H        -1.792106        -1.099938         3.295099
 H        -1.246997        -0.990759         0.371973
 H        -1.711191         0.556572         1.016334
 H         0.074547         1.498975        -0.958277
 H         1.621514         1.789011        -0.176752
 H         2.245536         0.338787         2.273110
 H         0.874711         1.462286         2.530377
