19
Iteration:  4367charge 0 multiplicity 1
 O         0.228837        -0.093449         4.560986
 C         0.424097        -0.397697         3.148766
 C         0.436069        -1.794834         2.832375
 C        -0.851807        -1.004715         2.479417
 C        -1.065188        -0.336164         1.161015
 C         0.338424         0.283533         0.860165
 C         0.756646         1.064889        -0.291706
 O         1.221326        -0.310750        -0.028735
 C         1.024652         0.589125         2.296260
 H         0.830542         0.644173         4.584564
 H         1.059886        -2.261635         2.094193
 H         0.318468        -2.512696         3.612582
 H        -1.682680        -1.343766         3.130441
 H        -1.314120        -1.048102         0.267218
 H        -1.826570         0.441644         1.056892
 H         0.027284         1.104343        -1.163943
 H         1.555473         1.784478        -0.222461
 H         2.086475         0.747429         2.349095
 H         0.492386         1.479963         2.666366
