19
Iteration:  2143
 O         0.275322        -0.184339         4.589926
 C         0.290211        -0.436199         3.232505
 C         0.218165        -1.802009         2.719957
 C        -0.952808        -0.923678         2.448914
 C        -0.981987        -0.096799         1.125816
 C         0.444491         0.401043         0.951074
 C         0.795258         0.871791        -0.462612
 O         1.328446        -0.363510         0.064497
 C         1.020623         0.658853         2.345164
 H         1.114909        -0.441627         4.957443
 H         0.816481        -2.080745         1.827647
 H         0.029972        -2.711381         3.342021
 H        -1.783431        -1.147192         3.153947
 H        -1.259134        -0.599942         0.186232
 H        -1.684236         0.715415         1.114923
 H         0.106322         0.564754        -1.295735
 H         1.608556         1.732338        -0.499250
 H         2.084664         0.409192         2.461948
 H         0.802866         1.671450         2.681658
