19
Iteration:  1431
 O         0.534268        -0.030410         4.609994
 C         0.244405        -0.469450         3.246689
 C        -0.001457        -1.905859         2.740490
 C        -1.044708        -0.827001         2.429765
 C        -1.031308        -0.163924         1.073923
 C         0.479841         0.241247         0.880137
 C         0.827990         0.970704        -0.400077
 O         1.482258        -0.284594         0.044255
 C         0.965153         0.549745         2.317224
 H         0.494879        -0.780228         5.181319
 H         0.784496        -2.288912         2.003417
 H        -0.044497        -2.677273         3.530324
 H        -1.946120        -0.974728         2.964735
 H        -1.488816        -0.940370         0.310760
 H        -1.883316         0.572463         1.010413
 H         0.104142         0.818255        -1.176729
 H         1.370844         1.969916        -0.265435
 H         2.047152         0.537191         2.455268
 H         0.541724         1.487086         2.785424
