19
Iteration:   542charge 0 multiplicity 1
 O         0.330461        -0.211602         4.640097
 C         0.286846        -0.334160         3.244283
 C         0.224153        -1.796191         2.707759
 C        -0.991469        -0.864936         2.539617
 C        -1.016110        -0.196675         1.107211
 C         0.404225         0.274296         0.913971
 C         0.885782         0.976348        -0.350127
 O         1.335940        -0.422146        -0.057675
 C         0.996552         0.619097         2.305942
 H         0.946876         0.463414         4.935387
 H         0.711217        -2.080789         1.742338
 H         0.054200        -2.653868         3.323426
 H        -1.921122        -0.792860         3.096181
 H        -1.256762        -1.116601         0.450422
 H        -1.723689         0.669327         0.902100
 H         0.147605         0.961984        -1.225236
 H         1.638658         1.715302        -0.293408
 H         2.075637         0.531173         2.449273
 H         0.694127         1.721722         2.408244
