19
Iteration:  1180charge 0 multiplicity 1
 O         0.135787        -0.183475         4.623941
 C         0.265321        -0.350357         3.269081
 C         0.324590        -1.729989         2.742434
 C        -0.914478        -0.878624         2.466519
 C        -0.997367        -0.149259         1.163690
 C         0.489877         0.309571         0.922134
 C         0.962352         0.980266        -0.316034
 O         1.128958        -0.456635        -0.135519
 C         1.105248         0.525455         2.283608
 H         1.046206        -0.023581         5.021772
 H         0.905472        -2.106514         1.852369
 H         0.028049        -2.517054         3.505727
 H        -1.817111        -1.050311         3.043290
 H        -1.464887        -0.619794         0.288252
 H        -1.734663         0.637122         1.375869
 H         0.311845         1.323488        -1.089458
 H         1.959657         1.445433        -0.197719
 H         2.136934         0.434558         2.336929
 H         1.061519         1.647508         2.395744
