19
Iteration:  3721charge 0 multiplicity 1
 O         0.403852        -0.071659         4.499812
 C         0.340857        -0.378312         3.165365
 C         0.421182        -1.800472         2.639260
 C        -0.841014        -1.015481         2.382892
 C        -1.130593        -0.174113         1.165808
 C         0.261977         0.454643         0.911681
 C         0.913803         0.865031        -0.308604
 O         1.251730        -0.439175         0.219626
 C         0.846784         0.705508         2.278110
 H         0.441324        -0.832099         5.112109
 H         1.102577        -2.193093         1.932436
 H         0.354626        -2.522494         3.415252
 H        -1.792431        -1.263808         2.865028
 H        -1.335881        -0.865877         0.414802
 H        -1.876483         0.590798         1.264999
 H         0.291377         0.787387        -1.310439
 H         1.689215         1.659645        -0.197797
 H         1.920911         0.676314         2.356917
 H         0.468983         1.680917         2.550590
