19
Iteration:  4597
 O         0.236458         0.108671         4.510626
 C         0.339768        -0.436716         3.172487
 C         0.518942        -1.928740         2.952085
 C        -0.842130        -1.027305         2.515666
 C        -0.956819        -0.424245         1.060305
 C         0.360356         0.251093         0.890521
 C         0.626337         1.168522        -0.189191
 O         1.229212        -0.227659        -0.147097
 C         1.016993         0.563296         2.221373
 H         0.293338        -0.557763         5.205612
 H         1.201584        -2.275849         2.222528
 H         0.241578        -2.649865         3.768055
 H        -1.739475        -1.383392         3.005031
 H        -1.176107        -1.250305         0.260834
 H        -1.769296         0.258131         1.124520
 H        -0.209466         1.271606        -0.950016
 H         1.543508         1.902162        -0.126004
 H         2.085687         0.415724         2.304824
 H         0.823042         1.616919         2.605807
