19
Iteration:  1466charge 0 multiplicity 1
 O         0.415454        -0.154591         4.486371
 C         0.302916        -0.373862         3.100826
 C         0.134869        -1.855965         2.677990
 C        -0.973463        -0.847728         2.506760
 C        -1.080935        -0.241137         1.145882
 C         0.456240         0.367298         0.940855
 C         0.980583         0.965276        -0.274453
 O         1.252677        -0.437900         0.100386
 C         0.987413         0.725908         2.292096
 H         0.049732        -0.847211         5.009753
 H         0.632384        -2.329322         1.797641
 H         0.271564        -2.441846         3.644004
 H        -1.852002        -0.838857         3.115946
 H        -1.012080        -1.067033         0.412558
 H        -2.016303         0.425560         1.123109
 H         0.525205         1.028493        -1.247420
 H         1.774302         1.635912        -0.140110
 H         2.016571         0.646659         2.253637
 H         0.739698         1.812635         2.688598
