19
Iteration:  4973charge 0 multiplicity 1
 O         0.210130         0.107796         4.593951
 C         0.371560        -0.406794         3.273536
 C         0.575342        -1.829303         2.819209
 C        -0.704531        -1.127516         2.541589
 C        -0.912246        -0.695688         1.114682
 C         0.279582         0.267588         0.912309
 C         0.607375         1.110698        -0.307038
 O         1.266102        -0.087697        -0.165431
 C         0.810827         0.659562         2.237102
 H         0.780788        -0.473504         5.123043
 H         1.415876        -2.098995         2.134437
 H         0.256783        -2.623533         3.539103
 H        -1.510132        -1.640307         3.145522
 H        -0.954339        -1.453972         0.350121
 H        -1.811439         0.005775         0.995845
 H         0.011995         1.200514        -1.166065
 H         1.149794         2.056809        -0.291330
 H         1.915397         0.798603         2.375145
 H         0.295481         1.600784         2.563343
