19
Iteration:  4043charge 0 multiplicity 1
 O         0.224798        -0.203091         4.554159
 C         0.299715        -0.340790         3.171322
 C         0.512468        -1.778194         2.687903
 C        -0.892612        -0.996104         2.498917
 C        -1.033212        -0.244970         1.234517
 C         0.400318         0.291741         0.937029
 C         0.728256         0.936058        -0.427463
 O         1.312991        -0.382935         0.110831
 C         0.922758         0.769314         2.231382
 H         1.113546        -0.063308         4.925706
 H         1.014352        -2.024150         1.620174
 H         0.631156        -2.534886         3.484316
 H        -1.776471        -1.185564         3.099973
 H        -1.413640        -0.883011         0.508446
 H        -1.731917         0.567026         1.387055
 H        -0.069310         0.950831        -1.222121
 H         1.416334         1.760955        -0.524505
 H         1.994973         0.932806         2.256710
 H         0.469112         1.625885         2.551589
