19
Iteration:  4550charge 0 multiplicity 1
 O         0.145834        -0.066953         4.742936
 C         0.400947        -0.391813         3.309455
 C         0.433084        -1.951630         2.775794
 C        -0.804562        -1.028346         2.541458
 C        -0.961927        -0.376487         1.118975
 C         0.360261         0.324883         0.874745
 C         0.675446         1.124687        -0.405048
 O         1.263892        -0.271241        -0.161239
 C         1.024993         0.609688         2.237677
 H         0.414818         0.865982         4.871510
 H         1.012896        -2.303083         1.801907
 H         0.456892        -2.719089         3.546203
 H        -1.692039        -1.035110         3.244957
 H        -1.179446        -1.298699         0.509351
 H        -1.854001         0.283863         1.104568
 H        -0.041492         1.044337        -1.361004
 H         1.295235         2.008160        -0.249790
 H         2.126796         0.508609         1.991666
 H         0.870632         1.743183         2.526763
