19
Iteration:  3160charge 0 multiplicity 1
 O         0.453351         0.017252         4.662390
 C         0.194768        -0.330263         3.221323
 C         0.097538        -1.847345         2.917852
 C        -1.040093        -0.845328         2.458279
 C        -0.804475        -0.449688         1.016457
 C         0.510636         0.200734         0.892573
 C         0.735682         1.142346        -0.229241
 O         1.270436        -0.218731        -0.305719
 C         1.064837         0.422564         2.334974
 H         0.204014        -0.760671         5.239693
 H         0.719744        -2.280954         2.225942
 H        -0.145658        -2.610270         3.660866
 H        -2.037618        -0.815928         3.001489
 H        -0.779238        -1.347581         0.264997
 H        -1.594712         0.295116         0.570985
 H        -0.162742         1.381532        -0.809416
 H         1.473527         1.778652         0.137831
 H         2.053003         0.001328         2.664089
 H         1.095947         1.500840         2.704999
