19
Iteration:  1659charge 0 multiplicity 1
 O         0.209929         0.086703         4.521122
 C         0.239941        -0.426122         3.246389
 C         0.101198        -1.984542         3.007608
 C        -0.979386        -0.943867         2.492717
 C        -0.911341        -0.284273         1.079848
 C         0.487610         0.381816         0.938326
 C         0.780987         1.152184        -0.285732
 O         1.292430        -0.188196        -0.247327
 C         1.256784         0.290081         2.286800
 H         0.583157        -0.498356         5.165712
 H         0.756083        -2.474763         2.260873
 H        -0.225395        -2.653445         3.863619
 H        -1.980411        -1.067945         2.855370
 H        -0.990021        -1.062414         0.307911
 H        -1.580604         0.555638         1.031761
 H        -0.170340         1.219421        -0.807770
 H         1.589718         1.911039        -0.309035
 H         2.266224        -0.324276         2.058971
 H         1.508079         1.233927         2.717598
