19
Iteration:  1603charge 0 multiplicity 1
 O         0.351942        -0.094462         4.602562
 C         0.327299        -0.388328         3.205106
 C        -0.020462        -1.790370         2.760009
 C        -1.018230        -0.825233         2.531415
 C        -0.927106        -0.391876         1.089966
 C         0.495290         0.133068         0.898993
 C         0.856906         1.052458        -0.160555
 O         1.349246        -0.262728        -0.276974
 C         1.001560         0.517718         2.371738
 H         1.269431         0.126898         4.942153
 H         0.563826        -2.290680         2.020995
 H        -0.078829        -2.385858         3.684165
 H        -1.876577        -0.588100         3.050523
 H        -1.141329        -1.272674         0.461865
 H        -1.622691         0.364192         0.706250
 H         0.166527         1.464749        -0.863416
 H         1.540955         1.943322         0.074536
 H         2.226599         0.577726         2.466419
 H         0.657063         1.502353         2.605010
