19
Iteration:  4073
 O         0.338147        -0.033436         4.575564
 C         0.386352        -0.421110         3.207638
 C         0.546205        -1.787652         2.626514
 C        -0.864205        -0.977231         2.431155
 C        -1.157542        -0.298024         1.112884
 C         0.264558         0.416340         0.927321
 C         0.848203         0.866464        -0.380503
 O         1.227017        -0.411511         0.114331
 C         0.886878         0.763875         2.360928
 H         0.583359        -0.834430         5.135748
 H         1.157265        -1.991141         1.677379
 H         0.501657        -2.616940         3.298557
 H        -1.623453        -1.309807         3.054074
 H        -1.181948        -1.035351         0.275545
 H        -2.048890         0.435043         1.201982
 H         0.221718         0.919494        -1.276408
 H         1.650873         1.646759        -0.262229
 H         1.954142         1.010167         2.270590
 H         0.323471         1.569879         2.884825
