19
Iteration:  2907charge 0 multiplicity 1
 O         0.201955         0.006384         4.517607
 C         0.283105        -0.448834         3.156956
 C         0.372845        -1.810211         2.696441
 C        -0.880905        -0.977772         2.378928
 C        -0.936980        -0.088331         1.180096
 C         0.533351         0.328621         0.965274
 C         0.784249         1.000636        -0.299372
 O         1.165094        -0.478618         0.000567
 C         0.988934         0.554805         2.348809
 H         0.745547        -0.603036         5.096276
 H         1.344759        -1.966649         2.172619
 H         0.213670        -2.627918         3.493455
 H        -1.871354        -1.308066         2.861709
 H        -1.207128        -0.564192         0.187729
 H        -1.667597         0.696513         1.343741
 H        -0.165653         1.127503        -0.947620
 H         1.813170         1.481720        -0.308971
 H         2.083997         0.537883         2.583419
 H         0.603389         1.497680         2.821006
