19
Iteration:    40
 O         0.478992        -0.255897         4.607087
 C         0.216475        -0.290297         3.225212
 C         0.086723        -1.768126         2.733395
 C        -1.043890        -0.768129         2.576555
 C        -1.003461        -0.381594         1.121914
 C         0.431019         0.248337         0.884375
 C         1.015519         1.023738        -0.368848
 O         1.342001        -0.364198        -0.004241
 C         0.854557         0.694154         2.279954
 H         1.347543        -0.678077         4.721565
 H         0.566917        -2.197483         1.885107
 H        -0.012169        -2.550979         3.529126
 H        -2.009939        -0.909350         3.022648
 H        -1.159166        -1.279180         0.440359
 H        -1.733819         0.526709         0.896060
 H         0.379445         0.973486        -1.322510
 H         1.855274         1.832219        -0.269787
 H         1.952654         0.758487         2.402992
 H         0.502992         1.769346         2.350791
