19
Iteration:  3659charge 0 multiplicity 1
 O         0.332264        -0.195478         4.644184
 C         0.360679        -0.409310         3.264153
 C         0.244241        -1.824769         2.831946
 C        -0.916514        -0.912452         2.420422
 C        -1.016404        -0.287569         1.019827
 C         0.356541         0.393518         0.925090
 C         0.809216         0.918751        -0.375801
 O         1.297309        -0.343759        -0.002107
 C         0.995038         0.714694         2.295011
 H         0.888824         0.529056         4.993214
 H         0.794825        -2.228730         1.921924
 H         0.202955        -2.416920         3.725708
 H        -1.837901        -1.161805         2.865342
 H        -1.038218        -1.100443         0.212923
 H        -1.947055         0.348468         0.754694
 H         0.047679         0.909567        -1.100025
 H         1.338618         1.835790        -0.492338
 H         2.064834         0.418537         2.347988
 H         0.926574         1.796934         2.661083
