19
Iteration:  4624charge 0 multiplicity 1
 O         0.329780         0.064976         4.656218
 C         0.374499        -0.428711         3.224360
 C         0.415023        -1.889682         2.897768
 C        -0.888248        -1.069175         2.584799
 C        -0.951048        -0.565963         1.050077
 C         0.293333         0.334782         0.862026
 C         0.690742         1.152648        -0.374445
 O         1.283063        -0.165185        -0.200933
 C         1.005417         0.559103         2.295408
 H        -0.559586         0.095821         5.014124
 H         0.948109        -2.230437         1.952887
 H         0.601461        -2.583009         3.707200
 H        -1.823642        -1.262218         3.132495
 H        -1.070920        -1.297431         0.300579
 H        -1.906686         0.058464         1.088647
 H        -0.003864         1.321575        -1.175875
 H         1.343659         1.919009        -0.114613
 H         2.111056         0.409544         2.301557
 H         0.793044         1.486693         2.749773
