19
Iteration:  2742
 O         0.213288         0.185349         4.565968
 C         0.297178        -0.499138         3.267755
 C         0.052598        -1.977097         3.012943
 C        -0.934788        -0.874460         2.484011
 C        -0.766378        -0.395835         1.039622
 C         0.581422         0.160284         0.933267
 C         0.762042         1.224112        -0.113202
 O         1.114086        -0.109206        -0.463153
 C         1.315458         0.235035         2.355515
 H        -0.666000         0.339528         4.925941
 H         0.884627        -2.562029         2.547622
 H        -0.426450        -2.626226         3.784361
 H        -1.867137        -0.971361         2.913485
 H        -0.859457        -1.252461         0.372996
 H        -1.543149         0.200604         0.784528
 H        -0.253622         1.544873        -0.524929
 H         1.664451         2.035843        -0.295735
 H         2.275892        -0.234874         2.211010
 H         1.371910         1.267550         2.590271
