19
Iteration:  2567
 O         0.260946         0.016729         4.512519
 C         0.271499        -0.481872         3.239048
 C         0.331080        -1.906188         2.701955
 C        -0.871119        -0.943401         2.393199
 C        -0.978903        -0.130692         1.141660
 C         0.400421         0.316581         0.992591
 C         0.939485         1.006337        -0.256728
 O         1.149507        -0.460681         0.018916
 C         0.966349         0.647314         2.258234
 H         1.056268        -0.327856         4.884074
 H         1.139662        -2.135149         1.958347
 H         0.104135        -2.682252         3.464520
 H        -1.953889        -1.384442         2.692549
 H        -1.442673        -0.606750         0.240149
 H        -1.545963         0.810030         1.443761
 H         0.188320         1.264003        -0.966721
 H         2.023067         1.401601        -0.224218
 H         2.054225         0.576822         2.326734
 H         0.602941         1.512267         2.763346
