19
Iteration:  1683charge 0 multiplicity 1
 O         0.108133         0.141953         4.562414
 C         0.357501        -0.441958         3.285522
 C         0.214652        -1.895000         2.888430
 C        -0.864103        -0.840644         2.462535
 C        -0.901552        -0.311332         1.063074
 C         0.511731         0.126533         0.890459
 C         0.768197         1.196232        -0.113891
 O         1.177248        -0.218295        -0.314956
 C         1.252737         0.244762         2.314687
 H         0.030682        -0.515531         5.293660
 H         0.648523        -2.538909         2.071355
 H        -0.356273        -2.514399         3.557540
 H        -1.902940        -0.894566         2.982478
 H        -1.296631        -0.947712         0.237909
 H        -1.365601         0.578508         1.155001
 H        -0.009560         1.442920        -0.910342
 H         1.642850         1.775362         0.046132
 H         2.348848        -0.016275         2.335977
 H         1.130813         1.341453         2.497119
