19
Iteration:    59
 O         0.468659        -0.134152         4.540757
 C         0.289303        -0.443750         3.157393
 C         0.067710        -1.846347         2.821229
 C        -1.042660        -0.913134         2.503483
 C        -1.031474        -0.212507         1.058062
 C         0.355907         0.429539         0.909635
 C         0.897005         0.882780        -0.365098
 O         1.420393        -0.349062         0.099012
 C         0.939329         0.665916         2.250384
 H         1.220886        -0.734162         4.803580
 H         0.658227        -2.315002         1.977841
 H         0.014372        -2.420816         3.792079
 H        -1.988637        -0.893103         3.072636
 H        -1.168005        -0.901178         0.239374
 H        -1.886096         0.644186         0.922531
 H         0.256396         1.097574        -1.251308
 H         1.755183         1.720377        -0.169886
 H         2.090235         0.589431         2.211989
 H         0.631863         1.615719         2.871207
