19
Iteration:  2908
 O         0.204033         0.007699         4.517897
 C         0.287464        -0.448404         3.165995
 C         0.371989        -1.813722         2.685680
 C        -0.882375        -0.983382         2.375640
 C        -0.936863        -0.084364         1.176907
 C         0.526352         0.329920         0.968543
 C         0.792787         0.987102        -0.300243
 O         1.163832        -0.479253        -0.001907
 C         0.986947         0.562405         2.356534
 H         0.757699        -0.597254         5.079088
 H         1.324436        -1.988554         2.165321
 H         0.221164        -2.601815         3.493540
 H        -1.883953        -1.309303         2.878867
 H        -1.208371        -0.536413         0.208034
 H        -1.661299         0.687070         1.327227
 H        -0.181589         1.138827        -0.960668
 H         1.811347         1.508587        -0.306471
 H         2.073158         0.604868         2.590588
 H         0.606999         1.466169         2.839571
