19
Iteration:    62
 O         0.459345        -0.109938         4.526943
 C         0.303859        -0.441132         3.149439
 C         0.075374        -1.886124         2.805530
 C        -1.009837        -0.895198         2.477661
 C        -1.045663        -0.201866         1.055271
 C         0.338314         0.428980         0.943220
 C         0.895849         0.878045        -0.362261
 O         1.416282        -0.343575         0.114840
 C         0.944294         0.653302         2.265542
 H         1.169606        -0.703467         4.847536
 H         0.673127        -2.398247         2.091884
 H        -0.052313        -2.472115         3.745110
 H        -1.916724        -0.886332         3.035090
 H        -1.198400        -0.925880         0.179094
 H        -1.842795         0.696392         0.975862
 H         0.149239         1.063000        -1.240696
 H         1.738199         1.674529        -0.220254
 H         2.042283         0.581258         2.184199
 H         0.712748         1.618107         2.848404
