19
Iteration:   566
 O         0.457619        -0.178901         4.662406
 C         0.237237        -0.358556         3.266759
 C         0.114173        -1.734282         2.691039
 C        -1.081280        -0.796953         2.502824
 C        -0.949749        -0.339781         1.024876
 C         0.387190         0.256934         0.955266
 C         0.872512         1.017035        -0.302956
 O         1.320428        -0.366023        -0.109535
 C         1.010007         0.547808         2.342378
 H         0.966639         0.620472         4.705515
 H         0.896948        -2.081640         2.027255
 H        -0.103970        -2.500032         3.523006
 H        -1.930613        -1.109549         3.130806
 H        -1.012639        -1.253296         0.377359
 H        -1.720025         0.505950         0.757013
 H         0.281449         1.128880        -1.237167
 H         1.760142         1.653997        -0.085494
 H         2.074404         0.428353         2.434506
 H         0.764130         1.635440         2.487618
