19
Iteration:  2890
 O         0.137884        -0.011780         4.566684
 C         0.246318        -0.373276         3.265115
 C         0.413867        -1.847425         2.806620
 C        -0.859226        -0.956122         2.426277
 C        -0.966632        -0.192060         1.106703
 C         0.414254         0.308881         0.928911
 C         0.819148         1.047150        -0.307553
 O         1.196077        -0.390398        -0.041981
 C         1.126715         0.511732         2.283450
 H         0.520615        -0.782100         5.071459
 H         0.950281        -2.169393         1.950647
 H         0.101073        -2.630369         3.433024
 H        -1.766221        -1.280452         2.940160
 H        -1.431059        -0.702666         0.296036
 H        -1.602391         0.733481         1.257771
 H         0.030293         1.102435        -1.064861
 H         1.574219         1.818344        -0.396465
 H         2.183273         0.223061         2.175427
 H         1.263994         1.562443         2.554739
