19
Iteration:  4449charge 0 multiplicity 1
 O         0.317722        -0.144134         4.531350
 C         0.436537        -0.305765         3.132151
 C         0.375656        -1.773675         2.686042
 C        -0.906154        -1.076049         2.429000
 C        -1.060688        -0.343050         1.200641
 C         0.347709         0.281934         0.924855
 C         0.810263         0.975987        -0.309872
 O         1.246934        -0.396630         0.095182
 C         0.852621         0.846233         2.267204
 H         1.193419        -0.384917         4.952569
 H         1.057204        -2.003984         1.862938
 H         0.287867        -2.326324         3.696487
 H        -1.671417        -1.383352         3.116261
 H        -1.242700        -0.889045         0.331923
 H        -1.813422         0.501276         1.366031
 H         0.229629         0.870906        -1.184201
 H         1.572387         1.765763        -0.469844
 H         2.009129         0.799587         2.301582
 H         0.573666         1.852848         2.766803
