19
Iteration:  2818
 O         0.442353         0.047549         4.586322
 C         0.261292        -0.462398         3.184337
 C        -0.017552        -1.910898         3.016448
 C        -1.047799        -0.873921         2.428599
 C        -0.872372        -0.476085         0.961348
 C         0.482388         0.202347         0.934503
 C         0.715516         1.177051        -0.190737
 O         1.367073        -0.131120        -0.157453
 C         1.080099         0.384184         2.272199
 H         1.255095         0.619471         4.565992
 H         0.618299        -2.467527         2.266594
 H        -0.454673        -2.517225         3.809921
 H        -1.892489        -1.092463         2.926542
 H        -0.934871        -1.386602         0.299372
 H        -1.678308         0.157058         0.624215
 H        -0.160402         1.376424        -0.844360
 H         1.361501         2.111343         0.010569
 H         2.105196         0.045447         2.362330
 H         1.122197         1.436204         2.560047
