19
Iteration:  1635charge 0 multiplicity 1
 O         0.282865        -0.037064         4.540608
 C         0.326394        -0.455779         3.192317
 C        -0.042757        -1.927875         2.978187
 C        -0.973296        -0.884976         2.513749
 C        -0.938556        -0.384617         1.092362
 C         0.437857         0.330161         0.858520
 C         0.823451         1.172275        -0.341623
 O         1.349727        -0.156339        -0.104798
 C         1.129517         0.359104         2.254589
 H         1.188042        -0.064967         4.894080
 H         0.622180        -2.456349         2.359095
 H        -0.218685        -2.429972         3.936568
 H        -1.802977        -0.649033         3.087314
 H        -0.939485        -1.233746         0.417790
 H        -1.734385         0.406373         0.933536
 H         0.142427         1.206671        -1.140618
 H         1.542285         1.976487        -0.084204
 H         2.205997        -0.062903         2.045958
 H         1.224155         1.330915         2.719755
