19
Iteration:  1504
 O         0.318889        -0.089495         4.702936
 C         0.247303        -0.412426         3.284674
 C         0.406804        -1.765437         2.590523
 C        -0.871152        -0.912476         2.354590
 C        -1.057848        -0.001299         1.156428
 C         0.379847         0.347358         0.930886
 C         0.955293         0.916933        -0.314696
 O         1.180752        -0.565878        -0.055150
 C         0.936113         0.641274         2.359323
 H        -0.082737        -0.837994         5.212019
 H         1.240092        -1.958319         1.908077
 H         0.176645        -2.619716         3.165581
 H        -1.794751        -1.308686         2.868569
 H        -1.380658        -0.566462         0.294299
 H        -1.750073         0.769139         1.163397
 H         0.380762         1.040924        -1.238481
 H         1.956794         1.468293        -0.274860
 H         2.112521         0.484818         2.475457
 H         0.695977         1.667719         2.451278
