19
Iteration:  1836
 O         0.207744        -0.095703         4.506682
 C         0.290480        -0.417333         3.163544
 C         0.413972        -1.820138         2.575912
 C        -0.918023        -1.040656         2.411368
 C        -0.993963        -0.062852         1.210689
 C         0.399054         0.433971         0.957043
 C         1.007434         0.851525        -0.276928
 O         1.122090        -0.489670         0.064647
 C         0.958037         0.695283         2.393242
 H         1.075108        -0.094905         4.913623
 H         1.105972        -2.045806         1.830395
 H         0.324711        -2.601576         3.317573
 H        -1.876461        -1.266355         2.909321
 H        -1.681670        -0.463732         0.401159
 H        -1.757653         0.904863         1.344855
 H         0.394444         0.978515        -1.199697
 H         1.941413         1.341452        -0.167399
 H         2.044228         0.642437         2.233507
 H         0.765785         1.708583         2.784058
