19
Iteration:  2599
 O         0.221960        -0.023129         4.565861
 C         0.283967        -0.456187         3.219488
 C         0.156521        -1.850437         2.780831
 C        -0.938870        -0.868518         2.537772
 C        -1.035828        -0.293354         1.141880
 C         0.390191         0.303897         0.924065
 C         0.855208         0.986258        -0.309616
 O         1.381721        -0.268414        -0.106522
 C         1.122104         0.495313         2.288221
 H         1.123822        -0.278828         4.916425
 H         0.720756        -2.186674         1.904029
 H         0.202256        -2.590751         3.570186
 H        -1.968723        -0.997873         3.088616
 H        -1.343713        -0.908479         0.287504
 H        -1.724175         0.489899         1.245482
 H         0.101263         1.212582        -1.080801
 H         1.675117         1.817104        -0.418454
 H         2.157796         0.249605         2.171111
 H         0.901853         1.479687         2.700102
