19
Iteration:  3115charge 0 multiplicity 1
 O         0.311946         0.047933         4.427140
 C         0.321724        -0.456676         3.160294
 C         0.082707        -1.967847         3.033743
 C        -0.904781        -0.899540         2.512857
 C        -0.968991        -0.357362         1.107726
 C         0.402996         0.286253         0.879057
 C         0.757840         1.209265        -0.202439
 O         1.364682        -0.214195        -0.128124
 C         1.167100         0.387390         2.242836
 H        -0.158085        -0.541680         5.034539
 H         0.621905        -2.544408         2.322241
 H        -0.099176        -2.477952         3.915836
 H        -1.821479        -0.813991         3.035782
 H        -1.233896        -1.022889         0.185211
 H        -1.910424         0.347498         1.199230
 H         0.196781         1.137741        -1.104981
 H         1.391727         1.951809         0.048584
 H         2.179815         0.155559         1.903002
 H         1.219650         1.482145         2.585151
