19
Iteration:  4442charge 0 multiplicity 1
 O         0.290840        -0.187808         4.556449
 C         0.393295        -0.277986         3.154074
 C         0.425907        -1.760799         2.671223
 C        -0.867388        -1.055110         2.445380
 C        -1.076874        -0.291617         1.169128
 C         0.398452         0.342352         0.933097
 C         0.763117         0.934782        -0.352057
 O         1.229637        -0.420265         0.093763
 C         0.905451         0.813129         2.324348
 H         1.235941        -0.042553         4.825204
 H         1.190558        -2.234765         2.021661
 H         0.257128        -2.362773         3.538290
 H        -1.702493        -1.426062         3.077057
 H        -1.311680        -0.913913         0.228299
 H        -1.887006         0.395210         1.219689
 H         0.026655         0.998145        -1.266707
 H         1.595771         1.625020        -0.210483
 H         1.972623         0.857405         2.231746
 H         0.494555         1.794152         2.519105
