19
Iteration:  2982
 O         0.430079        -0.197072         4.600774
 C         0.285975        -0.331723         3.163125
 C         0.151875        -1.796756         2.556253
 C        -1.002387        -0.873952         2.480527
 C        -0.948010        -0.181899         1.119115
 C         0.428823         0.375737         0.974378
 C         0.877009         0.853163        -0.302187
 O         1.318674        -0.446705         0.126255
 C         0.897863         0.713257         2.330578
 H         1.336470        -0.449319         4.744860
 H         0.735173        -1.985192         1.628056
 H         0.060477        -2.561794         3.388766
 H        -1.981653        -1.210878         2.975584
 H        -1.282002        -0.982170         0.349728
 H        -1.773914         0.525138         0.815187
 H         0.227125         0.794452        -1.148642
 H         1.499761         1.775023        -0.384935
 H         1.981652         0.947751         2.456426
 H         0.434144         1.771127         2.418373
