19
Iteration:  2775charge 0 multiplicity 1
 O         0.252679        -0.038703         4.567639
 C         0.319930        -0.401381         3.236302
 C         0.008160        -1.907204         3.058150
 C        -0.998370        -0.834267         2.584057
 C        -0.921309        -0.522846         1.045288
 C         0.510234         0.182506         0.913334
 C         0.728087         1.221376        -0.169916
 O         1.331618        -0.053542        -0.315999
 C         1.292485         0.282542         2.175290
 H        -0.364726         0.754858         4.528613
 H         0.650407        -2.570813         2.412844
 H        -0.241200        -2.259417         4.055344
 H        -1.892313        -0.622966         3.027368
 H        -0.914992        -1.442303         0.436575
 H        -1.659514         0.112348         0.691169
 H        -0.008217         1.523299        -0.990952
 H         1.509991         2.110470        -0.060278
 H         2.237330        -0.201776         1.979706
 H         1.574951         1.249150         2.504145
