19
Iteration:  4174
 O         0.360839        -0.032314         4.551568
 C         0.277519        -0.437177         3.239212
 C         0.443244        -1.830001         2.968735
 C        -0.909937        -0.958986         2.449013
 C        -0.882494        -0.417047         1.067576
 C         0.415487         0.357366         0.929217
 C         0.628966         1.044030        -0.302203
 O         1.210309        -0.203557        -0.124169
 C         1.044649         0.538670         2.264235
 H        -0.472960        -0.273978         4.923656
 H         1.038382        -2.408791         2.228792
 H         0.178743        -2.531365         3.891535
 H        -1.930640        -1.241183         2.879731
 H        -0.817036        -1.135966         0.298347
 H        -1.751283         0.348059         0.899669
 H        -0.287042         0.987552        -0.993298
 H         1.253431         1.919079        -0.426891
 H         2.130174         0.407587         2.285835
 H         0.826610         1.571297         2.508879
