19
Iteration:  4199charge 0 multiplicity 1
 O         0.275564         0.117777         4.624961
 C         0.341314        -0.425720         3.319964
 C         0.346896        -1.905563         2.882653
 C        -0.816709        -1.054235         2.528871
 C        -0.964370        -0.540153         1.131663
 C         0.382870         0.279290         0.811052
 C         0.705695         1.154789        -0.271467
 O         1.234927        -0.177187        -0.255410
 C         1.091424         0.521976         2.261585
 H        -0.566338        -0.121064         4.991787
 H         0.926033        -2.299664         2.061771
 H         0.165087        -2.647425         3.598472
 H        -1.721592        -1.209395         3.136040
 H        -1.211678        -1.227236         0.277491
 H        -1.754575         0.203821         1.181210
 H        -0.091460         1.373380        -0.943133
 H         1.473639         1.985348        -0.178891
 H         2.171187         0.437594         2.242074
 H         0.910537         1.521190         2.469327
