19
Iteration:  3935
 O         0.294760         0.108746         4.520569
 C         0.274067        -0.451737         3.234845
 C         0.289236        -1.943778         2.961783
 C        -0.868137        -0.957263         2.544235
 C        -0.913376        -0.460251         1.120748
 C         0.447025         0.323848         0.926146
 C         0.648616         1.167002        -0.288195
 O         1.259816        -0.179196        -0.279251
 C         1.137577         0.385278         2.320796
 H        -0.249921        -0.249827         5.190909
 H         1.114452        -2.374750         2.244096
 H        -0.094439        -2.672107         3.705594
 H        -1.813324        -1.090994         2.974799
 H        -0.930577        -1.132118         0.233443
 H        -1.744872         0.258410         1.053682
 H        -0.191756         1.291439        -0.983453
 H         1.246565         2.050134        -0.195513
 H         2.233691         0.249743         2.169209
 H         0.890518         1.471999         2.619542
