19
Iteration:  3008
 O         0.404683        -0.072172         4.572654
 C         0.327311        -0.459731         3.206425
 C         0.165919        -1.945906         2.741852
 C        -0.961971        -0.895042         2.466429
 C        -1.012313        -0.162888         1.076447
 C         0.417171         0.439306         0.876711
 C         0.900583         0.930515        -0.432083
 O         1.356249        -0.390215         0.062271
 C         0.881326         0.629001         2.406630
 H         0.771421        -0.797720         5.060225
 H         0.870635        -2.180092         1.992154
 H        -0.066642        -2.656352         3.463365
 H        -1.808666        -0.971720         3.071716
 H        -1.565564        -0.770726         0.434921
 H        -1.649885         0.689097         1.169375
 H         0.152798         1.002372        -1.318785
 H         1.576018         1.760633        -0.610710
 H         1.958319         0.777719         2.430584
 H         0.485203         1.543854         2.766824
