19
Iteration:  2056charge 0 multiplicity 1
 O         0.217579         0.115095         4.509025
 C         0.280750        -0.525402         3.222174
 C         0.096672        -1.956842         2.940789
 C        -0.954321        -0.936095         2.485126
 C        -0.962154        -0.323112         1.135665
 C         0.491939         0.374777         0.880416
 C         0.852634         1.184741        -0.286357
 O         1.283817        -0.216229        -0.170919
 C         1.164033         0.272931         2.259002
 H         0.964727         0.174331         5.092008
 H         0.738623        -2.405564         2.145511
 H        -0.096349        -2.577317         3.823331
 H        -2.003103        -1.118044         2.913588
 H        -1.120946        -1.045472         0.357667
 H        -1.594761         0.463637         1.360678
 H        -0.018551         1.312359        -0.978817
 H         1.678226         1.960955        -0.039281
 H         2.177956        -0.184408         2.322110
 H         1.120322         1.376078         2.666241
