19
Iteration:  2722charge 0 multiplicity 1
 O         0.225634         0.261877         4.493014
 C         0.285686        -0.449589         3.283395
 C         0.101621        -1.959972         3.008429
 C        -0.925017        -0.996318         2.545003
 C        -0.890081        -0.438840         1.070786
 C         0.529347         0.249229         0.935966
 C         0.806900         1.307275        -0.165878
 O         1.177463        -0.136785        -0.373458
 C         1.259620         0.138809         2.286425
 H        -0.615950        -0.077616         4.928505
 H         0.712111        -2.444783         2.168709
 H        -0.166974        -2.690937         3.797008
 H        -1.838565        -0.942053         2.972002
 H        -1.024873        -1.171256         0.286868
 H        -1.674291         0.250527         0.948569
 H         0.145370         1.809927        -0.920519
 H         1.765707         1.848283         0.078309
 H         2.189589        -0.433085         2.275797
 H         1.548726         1.081245         2.696652
