19
Iteration:  4259
 O         0.305918         0.126366         4.549059
 C         0.354189        -0.468196         3.272711
 C         0.355841        -1.938500         2.971337
 C        -0.873707        -1.060226         2.499654
 C        -0.876694        -0.441837         1.075598
 C         0.352653         0.379674         0.957885
 C         0.619046         1.172531        -0.316091
 O         1.250185        -0.188034        -0.254199
 C         1.084026         0.421727         2.291861
 H        -0.419873        -0.035873         5.165860
 H         1.143313        -2.276167         2.280019
 H         0.016431        -2.528239         3.913775
 H        -1.884452        -1.258307         2.898012
 H        -0.754267        -1.257285         0.302210
 H        -1.830054         0.071766         0.808052
 H        -0.264566         1.314623        -0.988168
 H         1.217883         2.015022        -0.131244
 H         2.127083         0.019513         2.189080
 H         1.080492         1.572783         2.527966
