19
Iteration:  3496
 O         0.450167        -0.044293         4.580716
 C         0.283414        -0.382948         3.227803
 C         0.057424        -1.856544         3.022795
 C        -1.058902        -0.809420         2.492182
 C        -0.837635        -0.486873         1.001274
 C         0.463189         0.256528         0.848523
 C         0.760840         1.185734        -0.172672
 O         1.294815        -0.214677        -0.170633
 C         1.106378         0.379494         2.218533
 H        -0.297248         0.486568         4.993100
 H         0.603219        -2.264297         2.211910
 H        -0.129461        -2.415620         3.970460
 H        -2.083745        -0.992356         2.850119
 H        -0.828326        -1.466501         0.452590
 H        -1.654180         0.104240         0.595897
 H        -0.001110         1.156624        -1.007431
 H         1.385573         2.079695        -0.258899
 H         2.127654         0.061538         2.149454
 H         1.179008         1.388737         2.544001
