19
Iteration:  3626charge 0 multiplicity 1
 O         0.282045         0.009243         4.510793
 C         0.335905        -0.449548         3.206280
 C         0.232479        -1.929937         2.904467
 C        -0.925919        -0.951155         2.521146
 C        -0.936683        -0.297812         1.151835
 C         0.462131         0.254926         0.910512
 C         0.796159         1.068966        -0.279656
 O         1.297718        -0.257575        -0.168609
 C         1.037181         0.497902         2.310491
 H        -0.286978         0.776789         4.499838
 H         0.797785        -2.193205         2.020159
 H         0.255564        -2.757127         3.613825
 H        -1.885381        -1.057375         2.982157
 H        -1.305894        -0.977956         0.343742
 H        -1.731814         0.491693         1.287679
 H        -0.002850         1.108602        -0.994384
 H         1.335729         1.938766        -0.149160
 H         2.089523         0.171675         2.287523
 H         0.958758         1.571693         2.655215
