19
Iteration:  4194charge 0 multiplicity 1
 O         0.293992         0.086767         4.617029
 C         0.334575        -0.406248         3.296249
 C         0.302625        -1.890168         2.878440
 C        -0.786386        -1.056479         2.520457
 C        -0.945619        -0.497284         1.079099
 C         0.397007         0.258802         0.811053
 C         0.651492         1.192807        -0.305688
 O         1.233977        -0.220455        -0.227686
 C         1.074307         0.539187         2.287399
 H        -0.561227        -0.123552         5.076036
 H         1.118587        -2.262133         2.196914
 H         0.200071        -2.689795         3.742562
 H        -1.658230        -1.223407         3.193802
 H        -1.037352        -1.330543         0.385659
 H        -1.739044         0.300733         1.246825
 H        -0.101045         1.393200        -1.133722
 H         1.425197         1.900308        -0.118883
 H         2.174310         0.318278         2.303115
 H         0.906580         1.598940         2.789244
