19
Iteration:  2388charge 0 multiplicity 1
 O         0.082964         0.026976         4.565576
 C         0.302855        -0.500751         3.232008
 C         0.185745        -1.950948         2.983223
 C        -0.876357        -0.882023         2.492581
 C        -0.865511        -0.178655         1.100642
 C         0.513665         0.385315         0.892295
 C         0.704326         1.105672        -0.309742
 O         1.282626        -0.252382        -0.167557
 C         1.213332         0.289232         2.268925
 H         0.924071        -0.094305         5.074677
 H         0.622694        -2.624336         2.178198
 H        -0.270555        -2.681148         3.665836
 H        -1.870332        -0.978037         3.024702
 H        -1.304244        -0.801283         0.250197
 H        -1.443875         0.791763         1.183424
 H        -0.135384         1.171279        -1.158359
 H         1.411168         1.951705        -0.542412
 H         2.186670        -0.210819         2.226092
 H         1.397094         1.297093         2.534216
