19
Iteration:  1400
 O         0.300979        -0.125843         4.596721
 C         0.264572        -0.364582         3.212642
 C         0.077862        -1.818657         2.888489
 C        -0.995213        -0.860700         2.470303
 C        -0.930326        -0.274804         1.077826
 C         0.468124         0.308809         0.889343
 C         0.881323         1.054927        -0.330734
 O         1.293195        -0.342662        -0.122939
 C         1.093553         0.521780         2.290982
 H         0.566730        -1.010323         4.975537
 H         0.860457        -2.054939         2.102961
 H         0.080283        -2.408119         3.833771
 H        -1.868809        -0.736144         3.026757
 H        -1.003458        -1.138330         0.430628
 H        -1.784147         0.452471         0.991575
 H         0.113256         1.295871        -1.029378
 H         1.501350         1.890009        -0.169211
 H         2.094770         0.193803         2.278215
 H         1.119701         1.634315         2.712545
