19
Iteration:  3267
 O         0.282293        -0.201673         4.705264
 C         0.279856        -0.340058         3.265508
 C         0.298390        -1.814285         2.728606
 C        -0.914662        -0.936287         2.498981
 C        -1.022822        -0.194709         1.169158
 C         0.422732         0.336812         0.848869
 C         0.945635         1.001260        -0.317695
 O         1.180084        -0.426030        -0.175508
 C         1.067504         0.589960         2.318939
 H        -0.258973         0.613385         4.948473
 H         1.033446        -1.978487         2.010710
 H         0.069253        -2.619010         3.429593
 H        -1.921565        -1.085381         3.015364
 H        -1.300170        -0.871219         0.308616
 H        -1.538258         0.756482         1.167119
 H         0.458121         1.124265        -1.320432
 H         1.777658         1.633401        -0.326090
 H         2.155364         0.499785         2.458436
 H         0.714646         1.667718         2.412057
