19
Iteration:  3461
 O         0.270781         0.113310         4.576456
 C         0.346518        -0.469810         3.244340
 C         0.116126        -1.984761         2.888747
 C        -0.928494        -0.911528         2.554304
 C        -0.932401        -0.385146         1.132349
 C         0.472743         0.328335         0.898960
 C         0.873257         1.175659        -0.248655
 O         1.207799        -0.321236        -0.231312
 C         1.156366         0.517762         2.255329
 H        -0.365669        -0.538599         5.017805
 H         0.588971        -2.462411         2.002888
 H         0.077320        -2.708946         3.642414
 H        -1.978460        -0.926413         3.072045
 H        -1.171736        -1.133132         0.367956
 H        -1.698259         0.484573         1.057223
 H         0.232947         1.174143        -1.136063
 H         1.663759         1.833884        -0.217805
 H         2.199399         0.217507         2.189985
 H         1.056564         1.572037         2.499595
