19
Iteration:   786charge 0 multiplicity 1
 O         0.140514        -0.191379         4.628246
 C         0.418985        -0.391801         3.139421
 C         0.292725        -1.836975         2.697649
 C        -0.886138        -0.875418         2.450330
 C        -1.038001        -0.050102         1.168845
 C         0.406495         0.340250         0.900348
 C         0.925452         0.884857        -0.360066
 O         1.209373        -0.462850         0.065592
 C         1.043373         0.654038         2.267767
 H         0.997803        -0.369403         5.014881
 H         0.824003        -2.179404         1.887641
 H         0.299682        -2.484884         3.569040
 H        -1.635877        -1.213052         3.130467
 H        -1.509364        -0.508565         0.326564
 H        -1.576137         0.929908         1.396818
 H         0.254336         0.921388        -1.194575
 H         1.709575         1.631313        -0.471181
 H         2.121703         0.835464         2.222520
 H         0.461533         1.620249         2.573191
