19
Iteration:  1542charge 0 multiplicity 1
 O         0.127145        -0.026162         4.484896
 C         0.370659        -0.442026         3.131750
 C         0.341877        -1.935975         2.688836
 C        -0.871159        -0.978704         2.457622
 C        -0.990108        -0.034936         1.213527
 C         0.416845         0.441639         0.945468
 C         0.868534         0.943020        -0.337037
 O         1.186342        -0.450327         0.083164
 C         1.128706         0.595107         2.287353
 H         0.198136        -0.810786         5.086713
 H         0.942242        -2.366962         1.879625
 H        -0.097446        -2.663540         3.484141
 H        -1.670352        -0.988050         3.201420
 H        -1.269808        -0.693442         0.332430
 H        -1.704247         0.843665         1.425593
 H         0.093474         1.026922        -1.147931
 H         1.723618         1.623846        -0.367728
 H         2.136985         0.441788         2.252017
 H         0.951479         1.577463         2.837224
