19
Iteration:  4248
 O         0.321023         0.169074         4.592590
 C         0.316024        -0.423945         3.237046
 C         0.309503        -1.908296         2.951670
 C        -0.841037        -1.120078         2.452555
 C        -0.911818        -0.460908         1.076049
 C         0.405772         0.264441         0.884002
 C         0.648989         1.139239        -0.182061
 O         1.170691        -0.121728        -0.178755
 C         1.127151         0.457263         2.190447
 H        -0.590736        -0.186797         4.830016
 H         1.135613        -2.363236         2.386747
 H         0.154274        -2.584764         3.900564
 H        -1.694307        -1.460014         3.052509
 H        -0.920459        -1.196370         0.225820
 H        -1.792700         0.207654         0.888538
 H        -0.104502         1.323394        -0.989560
 H         1.426041         1.836535        -0.220993
 H         2.208877         0.224311         1.965118
 H         1.164486         1.506339         2.745210
