19
Iteration:  4982charge 0 multiplicity 1
 O         0.300508         0.102835         4.598064
 C         0.273551        -0.337087         3.204495
 C         0.573874        -1.861626         2.866100
 C        -0.697604        -1.194209         2.472899
 C        -0.922484        -0.658251         1.123379
 C         0.300137         0.277609         0.836814
 C         0.590047         1.125318        -0.313628
 O         1.286027        -0.127626        -0.133994
 C         0.819345         0.716827         2.337870
 H         0.334001        -0.721148         5.093139
 H         1.318572        -1.981478         2.057150
 H         0.606610        -2.564917         3.685903
 H        -1.649869        -1.461745         2.899533
 H        -0.974846        -1.583065         0.435516
 H        -1.959008        -0.211216         1.038071
 H        -0.223065         1.061052        -1.077817
 H         1.104460         2.052251        -0.152033
 H         1.888181         0.722635         2.344837
 H         0.439149         1.699503         2.636756
