19
Iteration:  2248charge 0 multiplicity 1
 O         0.314219        -0.061390         4.527648
 C         0.271075        -0.434205         3.234786
 C         0.161264        -1.854565         2.753247
 C        -0.986914        -0.929077         2.488072
 C        -0.924721        -0.174970         1.183123
 C         0.513766         0.340558         0.897142
 C         0.785588         0.965998        -0.404241
 O         1.316201        -0.343728         0.008514
 C         1.048326         0.558684         2.287498
 H         0.733401        -0.726370         5.071263
 H         0.573752        -2.202986         1.825086
 H         0.000508        -2.637771         3.437048
 H        -1.982652        -1.030462         3.014320
 H        -1.106930        -0.943774         0.398550
 H        -1.525866         0.817695         1.288638
 H        -0.044696         1.075048        -1.107987
 H         1.429113         1.768162        -0.468242
 H         2.181723         0.453336         2.550024
 H         0.745277         1.663835         2.860252
