19
Iteration:   418charge 0 multiplicity 1
 O         0.448531        -0.034042         4.524733
 C         0.310699        -0.516048         3.210802
 C         0.106313        -1.941775         2.788099
 C        -0.967984        -0.841501         2.532314
 C        -0.955358        -0.288019         1.089888
 C         0.406310         0.383531         0.931923
 C         0.833946         0.968879        -0.380399
 O         1.321320        -0.341642         0.040234
 C         1.009314         0.674407         2.281506
 H         0.023574        -0.342525         5.319825
 H         0.510197        -2.501511         1.915962
 H        -0.044975        -2.650224         3.638947
 H        -2.028409        -0.896797         2.905050
 H        -1.089734        -1.070442         0.265181
 H        -1.728627         0.476211         1.122178
 H         0.310004         1.008861        -1.257192
 H         1.566267         1.772959        -0.463939
 H         2.147188         0.679093         2.147919
 H         0.616119         1.686508         2.644909
