19
Iteration:  1629charge 0 multiplicity 1
 O         0.297747        -0.068082         4.538741
 C         0.315587        -0.449916         3.225797
 C        -0.031597        -1.959928         2.984670
 C        -0.952512        -0.801199         2.545199
 C        -0.929773        -0.374810         1.049864
 C         0.421979         0.279012         0.827567
 C         0.827256         1.173696        -0.260715
 O         1.357463        -0.182478        -0.092832
 C         1.130068         0.383351         2.207246
 H         1.206550         0.072243         4.938009
 H         0.661275        -2.458086         2.223126
 H        -0.289049        -2.611699         3.857805
 H        -2.012733        -0.629543         3.009777
 H        -1.068698        -1.339576         0.467989
 H        -1.646544         0.368744         0.802659
 H         0.047396         1.334529        -1.112749
 H         1.519058         2.015557        -0.210285
 H         2.191091         0.230188         2.068836
 H         1.042950         1.448982         2.588131
