19
Iteration:  1809charge 0 multiplicity 1
 O         0.266160        -0.254420         4.645816
 C         0.291616        -0.356306         3.214190
 C         0.322739        -1.771454         2.720195
 C        -0.932601        -0.843779         2.443050
 C        -1.041275        -0.166431         1.064064
 C         0.409417         0.375789         0.873940
 C         0.914392         0.928632        -0.345521
 O         1.228693        -0.440201         0.083987
 C         0.994566         0.686344         2.303560
 H         1.109372        -0.605784         4.943299
 H         0.993052        -2.113513         1.879945
 H        -0.095510        -2.573938         3.385990
 H        -1.791470        -0.997903         3.068611
 H        -1.300118        -0.911114         0.333542
 H        -1.782239         0.484741         0.881080
 H         0.277689         0.993292        -1.238832
 H         1.801904         1.665681        -0.294356
 H         2.129150         0.650151         2.187489
 H         0.735652         1.707956         2.628270
