19
Iteration:  3842charge 0 multiplicity 1
 O         0.350795         0.011942         4.562974
 C         0.312751        -0.489753         3.234468
 C         0.234704        -1.877495         2.923242
 C        -0.933725        -0.984221         2.485937
 C        -0.883377        -0.457338         1.024260
 C         0.416308         0.312409         0.938169
 C         0.689198         1.120864        -0.212454
 O         1.264772        -0.192711        -0.165222
 C         1.060066         0.494485         2.268266
 H         0.632532         0.970454         4.404155
 H         0.774659        -2.627790         2.387294
 H        -0.054738        -2.355172         3.845805
 H        -1.928194        -1.103955         2.966405
 H        -0.929636        -1.246082         0.344680
 H        -1.726695         0.208182         0.914440
 H        -0.207514         1.282137        -0.908962
 H         1.354203         2.003666        -0.279868
 H         2.107200         0.262111         2.181917
 H         0.889377         1.494015         2.561615
