19
Iteration:  4334charge 0 multiplicity 1
 O         0.332768         0.030461         4.661131
 C         0.296271        -0.414512         3.151035
 C         0.295286        -1.879679         2.864822
 C        -0.935325        -1.049260         2.583219
 C        -0.928995        -0.481950         1.119616
 C         0.351422         0.340514         0.891903
 C         0.743332         1.155991        -0.342388
 O         1.286717        -0.238841        -0.158923
 C         0.984667         0.561909         2.272236
 H         1.277456         0.117184         4.932721
 H         0.742592        -2.267178         1.986729
 H         0.210127        -2.637987         3.681764
 H        -1.932098        -1.329453         2.929082
 H        -0.773286        -1.398011         0.396227
 H        -1.836240         0.100115         0.958882
 H         0.102440         1.268144        -1.286190
 H         1.382053         2.013898        -0.317816
 H         2.069650         0.542267         2.230130
 H         0.670028         1.557677         2.695025
