19
Iteration:  4623charge 0 multiplicity 1
 O         0.328401         0.070522         4.654530
 C         0.377521        -0.424786         3.228132
 C         0.410565        -1.890602         2.893053
 C        -0.880465        -1.070596         2.578741
 C        -0.954942        -0.571335         1.058608
 C         0.293245         0.335493         0.862731
 C         0.692779         1.152276        -0.383587
 O         1.281070        -0.165174        -0.199350
 C         1.005035         0.551177         2.296808
 H        -0.562275         0.054345         5.024620
 H         0.946774        -2.209280         1.947342
 H         0.569720        -2.557560         3.723605
 H        -1.818545        -1.270732         3.130915
 H        -1.056706        -1.283758         0.275556
 H        -1.893978         0.067658         1.109909
 H        -0.004466         1.332723        -1.163407
 H         1.346592         1.931912        -0.057243
 H         2.111496         0.433422         2.285243
 H         0.799627         1.466618         2.747480
