19
Iteration:    70
 O         0.421466        -0.053570         4.494957
 C         0.340133        -0.431622         3.142566
 C         0.106755        -1.959737         2.770640
 C        -0.934795        -0.837102         2.409340
 C        -1.048513        -0.200368         1.062862
 C         0.337455         0.412930         0.960907
 C         0.881509         0.894796        -0.318752
 O         1.365457        -0.344860         0.145053
 C         0.960570         0.612615         2.317609
 H         1.045086        -0.643631         4.982174
 H         0.750414        -2.580631         2.096934
 H        -0.321292        -2.577075         3.623244
 H        -1.847700        -0.938735         3.015322
 H        -1.321732        -0.824714         0.230168
 H        -1.796921         0.714524         1.182651
 H         0.155218         0.746353        -1.139071
 H         1.662774         1.789787        -0.517079
 H         2.092064         0.528235         2.145306
 H         0.785819         1.688971         2.726400
