19
Iteration:  1670
 O         0.164425         0.133016         4.559034
 C         0.289945        -0.491824         3.260750
 C         0.084199        -1.924417         2.943863
 C        -0.876596        -0.907865         2.436421
 C        -0.849835        -0.251464         1.110193
 C         0.566613         0.232913         0.892377
 C         0.736929         1.177100        -0.214447
 O         1.223962        -0.215327        -0.245880
 C         1.187202         0.253793         2.257488
 H         0.316412        -0.599213         5.169076
 H         1.019449        -2.179023         2.454550
 H        -0.212997        -2.649776         3.740371
 H        -1.745663        -0.870633         3.065157
 H        -1.122769        -0.908116         0.261206
 H        -1.649612         0.460637         1.012660
 H        -0.050243         1.466444        -0.913768
 H         1.451455         2.014567        -0.173140
 H         2.255615        -0.282715         2.211763
 H         1.365649         1.238517         2.637484
