19
Iteration:   960charge 0 multiplicity 1
 O         0.148255         0.051376         4.666211
 C         0.307357        -0.418546         3.269163
 C         0.167282        -1.936368         2.915602
 C        -0.858028        -0.839512         2.473753
 C        -0.985756        -0.291133         1.102714
 C         0.448982         0.239968         0.870887
 C         0.924754         1.058030        -0.227705
 O         1.205801        -0.249591        -0.360982
 C         1.155519         0.416226         2.292249
 H         0.685124        -0.662358         5.148717
 H         0.811443        -2.355709         2.160727
 H        -0.050531        -2.588094         3.688661
 H        -1.827302        -0.767644         3.112810
 H        -1.308963        -1.138007         0.436881
 H        -1.735259         0.521799         1.094281
 H         0.292196         1.584187        -1.043586
 H         1.923192         1.575485        -0.061808
 H         2.165827         0.297242         2.189419
 H         0.958497         1.390224         2.745640
