19
Iteration:  1721
 O         0.285516         0.081068         4.561208
 C         0.249310        -0.449690         3.224756
 C         0.150187        -1.887147         2.957380
 C        -0.960386        -0.907609         2.507630
 C        -0.913880        -0.374584         1.048108
 C         0.408790         0.305703         0.860621
 C         0.977846         1.197180        -0.251665
 O         1.188345        -0.227237        -0.193645
 C         1.130451         0.329712         2.272709
 H         0.205316        -0.668576         5.131577
 H         0.599208        -2.399651         2.136906
 H        -0.056345        -2.592516         3.822323
 H        -1.907191        -1.121511         2.896796
 H        -1.182470        -1.194645         0.389329
 H        -1.711467         0.467828         0.911654
 H         0.283445         1.587804        -0.973259
 H         1.836693         1.861314         0.143315
 H         2.146220        -0.045712         2.180540
 H         1.202731         1.316573         2.762149
