19
Iteration:  3034
 O         0.249321        -0.114082         4.525692
 C         0.343083        -0.373492         3.178619
 C         0.265887        -1.808516         2.832258
 C        -0.982736        -0.924025         2.459873
 C        -0.975624        -0.236432         1.139435
 C         0.411446         0.303873         0.901791
 C         0.844712         1.014737        -0.281491
 O         1.262480        -0.375250        -0.006444
 C         1.098012         0.609450         2.242026
 H         0.051819        -0.880813         5.044712
 H         0.934362        -2.267886         2.029293
 H        -0.004513        -2.565360         3.685521
 H        -1.901308        -1.003508         3.129275
 H        -1.438643        -0.948228         0.376612
 H        -1.598142         0.709939         1.304617
 H         0.283757         1.451627        -1.087902
 H         1.740613         1.705233        -0.173176
 H         2.128707         0.343230         1.907984
 H         1.064547         1.680690         2.528637
