19
Iteration:  2580charge 0 multiplicity 1
 O         0.292562         0.109704         4.559788
 C         0.280877        -0.502760         3.219012
 C         0.247228        -1.943997         2.688852
 C        -0.924968        -0.999290         2.423360
 C        -0.983012        -0.128462         1.156575
 C         0.455452         0.310836         0.904118
 C         0.883525         1.009425        -0.267172
 O         1.251372        -0.393039        -0.021048
 C         0.962077         0.534673         2.343792
 H         1.127660        -0.162780         5.047693
 H         0.981500        -2.226976         1.914099
 H        -0.117924        -2.834513         3.324787
 H        -1.806378        -1.298661         3.014208
 H        -1.356191        -0.686720         0.253511
 H        -1.729197         0.778314         1.300565
 H         0.239211         1.149571        -1.094849
 H         1.583537         1.800240        -0.151590
 H         2.087963         0.489966         2.304514
 H         0.737167         1.583058         2.570588
