19
Iteration:  2560
 O         0.238862        -0.057866         4.524679
 C         0.300800        -0.381698         3.178249
 C         0.370783        -1.868257         2.713179
 C        -0.885930        -0.974334         2.392571
 C        -1.010452        -0.130911         1.139771
 C         0.411192         0.396524         0.942532
 C         0.969003         0.953196        -0.228654
 O         1.110397        -0.476000         0.017639
 C         0.982407         0.598047         2.303990
 H         1.022011        -0.324281         5.009776
 H         1.111292        -2.081483         1.956702
 H         0.123572        -2.633144         3.513904
 H        -1.783582        -1.278690         2.795653
 H        -1.502676        -0.610361         0.277870
 H        -1.637510         0.809505         1.385879
 H         0.319203         1.189576        -1.069685
 H         1.905892         1.404574        -0.244920
 H         2.090087         0.767200         2.420202
 H         0.607892         1.605873         2.701884
