19
Iteration:  3257
 O         0.250417        -0.160621         4.692032
 C         0.252429        -0.401227         3.289670
 C         0.322975        -1.748390         2.770915
 C        -0.940773        -0.929275         2.431416
 C        -0.960609        -0.165960         1.138076
 C         0.523630         0.258488         0.891144
 C         0.903483         1.063139        -0.330808
 O         1.168862        -0.427011        -0.130878
 C         1.041042         0.491591         2.243992
 H         0.162868         0.820933         4.840415
 H         1.016006        -1.971711         2.034301
 H         0.108668        -2.601444         3.395434
 H        -1.768952        -1.271903         3.138568
 H        -1.433245        -0.757691         0.279580
 H        -1.719314         0.662822         1.207632
 H         0.032386         1.357178        -0.959283
 H         1.751986         1.651737        -0.220177
 H         2.142618         0.548701         2.212017
 H         0.799570         1.551961         2.605967
