19
Iteration:  2371
 O         0.080130         0.040502         4.446227
 C         0.365727        -0.436323         3.157368
 C         0.085524        -1.949924         2.951825
 C        -0.950046        -0.989891         2.487736
 C        -0.945372        -0.216699         1.204393
 C         0.492162         0.280398         0.951219
 C         0.794752         1.118170        -0.348755
 O         1.276643        -0.180171        -0.158910
 C         1.283553         0.304407         2.269161
 H         0.754142        -0.099032         5.131643
 H         0.932628        -2.299444         2.452526
 H        -0.004854        -2.424504         3.928301
 H        -1.745972        -0.970803         3.182105
 H        -1.447967        -0.774578         0.426074
 H        -1.720775         0.541117         1.413660
 H         0.034599         1.292299        -1.011616
 H         1.459817         1.948765        -0.311613
 H         2.289862        -0.130314         2.041315
 H         1.722506         1.256681         2.786287
