19
Iteration:   558
 O         0.431834        -0.187608         4.729278
 C         0.227319        -0.377822         3.257166
 C         0.129035        -1.712508         2.679686
 C        -1.069154        -0.738105         2.507245
 C        -0.998294        -0.369162         1.046943
 C         0.518890         0.254099         0.878415
 C         0.891674         0.976594        -0.287938
 O         1.306908        -0.365860        -0.066815
 C         0.955600         0.559631         2.291663
 H         0.996028         0.563578         4.701780
 H         0.758893        -1.942580         1.802228
 H         0.266126        -2.527928         3.424747
 H        -1.921054        -1.222596         3.007186
 H        -1.153860        -1.087396         0.316015
 H        -1.758686         0.427337         0.984447
 H         0.135284         1.263294        -0.975703
 H         1.733819         1.725991        -0.444900
 H         2.045878         0.442343         2.226688
 H         0.723642         1.515948         2.613404
