19
Iteration:  2418
 O         0.205248        -0.052765         4.629079
 C         0.286139        -0.356135         3.230172
 C         0.134942        -1.827364         2.825385
 C        -0.957724        -0.867269         2.496275
 C        -0.910118        -0.350623         1.078833
 C         0.511233         0.246053         0.903093
 C         0.857208         1.128532        -0.241633
 O         1.221748        -0.326058        -0.258872
 C         1.138137         0.449054         2.369353
 H         1.037796        -0.326795         5.007339
 H         0.575303        -2.170975         1.799908
 H        -0.101554        -2.612383         3.567189
 H        -1.850785        -0.823240         3.224736
 H        -1.284545        -1.108759         0.413510
 H        -1.623374         0.420165         1.030910
 H         0.145080         1.433697        -1.023289
 H         1.770264         1.781460        -0.252660
 H         2.213185         0.294719         2.608123
 H         1.070152         1.529333         2.483850
