19
Iteration:  3135
 O         0.369754         0.107170         4.563560
 C         0.385454        -0.468458         3.218231
 C         0.022011        -1.927266         2.876564
 C        -1.039712        -0.838643         2.557109
 C        -0.901843        -0.477296         1.061855
 C         0.461081         0.239373         0.912407
 C         0.802245         1.155957        -0.272333
 O         1.301410        -0.131155        -0.156173
 C         1.115991         0.384296         2.247285
 H        -0.045778        -0.533630         5.208744
 H         0.657260        -2.488241         2.146189
 H        -0.269095        -2.609733         3.644476
 H        -1.865762        -0.940671         3.170609
 H        -0.858795        -1.339814         0.300528
 H        -1.680402         0.260046         0.729974
 H        -0.053104         1.227220        -0.908759
 H         1.488671         1.947821        -0.162637
 H         2.162525         0.067627         2.120721
 H         1.097311         1.415823         2.738835
