19
Iteration:  4079
 O         0.390260        -0.031766         4.563704
 C         0.352449        -0.468850         3.182423
 C         0.543456        -1.749617         2.665476
 C        -0.836404        -0.972867         2.419641
 C        -1.141154        -0.297535         1.131724
 C         0.313687         0.410471         0.864688
 C         0.873087         0.927969        -0.353411
 O         1.177926        -0.420380         0.144145
 C         0.835518         0.730591         2.358207
 H         0.418921        -0.845761         5.117544
 H         1.172171        -1.876039         1.863378
 H         0.536795        -2.635925         3.339487
 H        -1.827306        -1.249900         2.964955
 H        -1.160518        -0.966356         0.231681
 H        -2.080865         0.178083         1.150107
 H         0.128225         0.860999        -1.152753
 H         1.708162         1.612974        -0.397940
 H         1.925770         0.932826         2.328681
 H         0.309145         1.688482         2.734758
