19
Iteration:  1198
 O         0.147427        -0.060110         4.527943
 C         0.416524        -0.420183         3.119889
 C         0.170124        -1.943525         2.755847
 C        -0.880046        -0.819817         2.523834
 C        -1.008108        -0.139717         1.171632
 C         0.413546         0.263750         0.913658
 C         0.920968         1.021435        -0.204394
 O         1.213290        -0.419899        -0.058140
 C         1.076603         0.545437         2.260545
 H         1.012657        -0.025492         5.039181
 H         0.789865        -2.227003         2.014864
 H         0.130399        -2.592667         3.577626
 H        -1.742473        -0.934467         3.125197
 H        -1.310603        -0.804450         0.257987
 H        -1.623996         0.761295         1.041434
 H         0.255928         1.209948        -1.088516
 H         1.710957         1.721557        -0.053299
 H         2.233432         0.362179         2.031205
 H         0.954070         1.538034         2.768514
