19
Iteration:   751
 O         0.359777        -0.245127         4.643465
 C         0.280435        -0.326185         3.205388
 C         0.117003        -1.717600         2.653210
 C        -1.051636        -0.788847         2.570313
 C        -0.966087        -0.260257         1.056281
 C         0.421317         0.344199         0.933063
 C         0.896431         0.934541        -0.384017
 O         1.283615        -0.399426         0.045167
 C         1.055838         0.612892         2.328875
 H         1.274874        -0.364428         4.856307
 H         0.527681        -2.093519         1.668302
 H         0.255088        -2.440061         3.418899
 H        -2.006736        -0.941236         3.027480
 H        -0.945972        -1.186446         0.399508
 H        -1.730915         0.411908         0.700655
 H         0.178902         0.813116        -1.188501
 H         1.855221         1.567101        -0.375915
 H         2.093872         0.738090         2.192786
 H         0.667048         1.644361         2.660947
