19
Iteration:  3049charge 0 multiplicity 1
 O         0.214022        -0.009047         4.570490
 C         0.289260        -0.378934         3.193627
 C         0.280128        -1.804500         2.764568
 C        -0.857414        -0.864188         2.510802
 C        -1.003318        -0.278472         1.104150
 C         0.441229         0.265491         0.936115
 C         0.887905         1.090523        -0.215927
 O         1.169862        -0.386205        -0.136791
 C         1.133030         0.455075         2.303430
 H        -0.077736        -0.874618         4.955205
 H         0.859327        -2.017093         1.876682
 H         0.308324        -2.470813         3.572056
 H        -1.754169        -0.978054         3.064606
 H        -1.175785        -0.869073         0.154083
 H        -1.848941         0.467665         1.003435
 H         0.151524         1.115857        -1.031463
 H         1.648805         1.822730        -0.136075
 H         2.180766         0.207434         2.502537
 H         1.021034         1.526271         2.661836
