19
Iteration:  1841charge 0 multiplicity 1
 O         0.164563        -0.056949         4.530845
 C         0.333955        -0.454794         3.139831
 C         0.454821        -1.830308         2.569654
 C        -0.897913        -1.017814         2.408805
 C        -1.066466        -0.011989         1.223625
 C         0.396971         0.400151         0.980247
 C         1.011257         0.863387        -0.303942
 O         1.129698        -0.526044         0.065460
 C         0.953248         0.699567         2.374025
 H         1.114629        -0.053936         4.815326
 H         1.186066        -2.107738         1.730117
 H         0.135885        -2.792868         3.084061
 H        -1.775199        -1.289914         2.988381
 H        -1.572445        -0.506254         0.380755
 H        -1.596390         0.871603         1.520092
 H         0.410000         1.050932        -1.180926
 H         1.921495         1.477965        -0.002878
 H         2.060074         0.639006         2.287039
 H         0.672278         1.676824         2.856900
