19
Iteration:  4355
 O         0.295194        -0.026070         4.580598
 C         0.320392        -0.430352         3.246256
 C         0.384760        -1.967505         2.804786
 C        -0.818464        -0.979103         2.506020
 C        -1.021948        -0.406569         1.100281
 C         0.351883         0.330807         0.944333
 C         0.800444         1.058053        -0.317758
 O         1.218934        -0.262227        -0.093655
 C         0.957575         0.639202         2.247158
 H         0.887962         0.649167         4.985953
 H         1.076665        -2.170605         2.038007
 H         0.137122        -2.575664         3.698233
 H        -1.762448        -1.111637         3.045413
 H        -1.252164        -1.255594         0.314932
 H        -1.863548         0.234792         1.291993
 H         0.152139         1.157817        -1.286347
 H         1.490231         1.932692        -0.206896
 H         2.017722         0.583199         2.152479
 H         0.699722         1.653779         2.526719
