19
Iteration:  2067charge 0 multiplicity 1
 O         0.300497         0.131246         4.503186
 C         0.228937        -0.490665         3.238887
 C         0.092163        -1.972013         2.907666
 C        -1.038159        -1.019184         2.503525
 C        -0.940395        -0.314120         1.144900
 C         0.445286         0.336786         0.910964
 C         0.892924         1.163513        -0.291069
 O         1.303631        -0.222651        -0.185813
 C         1.111602         0.349854         2.313936
 H         1.136995        -0.303968         4.828148
 H         0.867538        -2.344041         2.201687
 H        -0.078153        -2.606612         3.791775
 H        -2.004330        -0.986004         3.111983
 H        -1.197636        -0.927436         0.293140
 H        -1.743558         0.335823         0.964884
 H         0.331343         1.524404        -1.196473
 H         1.700805         2.002752        -0.158812
 H         2.205920         0.138694         2.244319
 H         1.107975         1.407350         2.815300
