19
Iteration:  4399charge 0 multiplicity 1
 O         0.184704        -0.160085         4.668838
 C         0.287500        -0.331530         3.260849
 C         0.506388        -1.826134         2.632155
 C        -0.768257        -1.012900         2.459412
 C        -1.032708        -0.259690         1.217944
 C         0.345725         0.340989         0.891313
 C         0.775849         0.912383        -0.422264
 O         1.188798        -0.365272        -0.020463
 C         1.060082         0.722427         2.326374
 H         0.612622         0.728770         4.722371
 H         1.037722        -1.902437         1.701610
 H         0.353289        -2.533550         3.418001
 H        -1.587284        -1.523773         2.997388
 H        -1.478629        -0.950018         0.353336
 H        -1.734968         0.538925         1.399891
 H        -0.045790         0.829214        -1.284298
 H         1.572020         1.666977        -0.510507
 H         2.091561         0.782619         2.543970
 H         0.612592         1.637284         2.625907
