19
Iteration:  2577
 O         0.291954         0.108260         4.552412
 C         0.266218        -0.548357         3.223418
 C         0.255645        -1.931533         2.693797
 C        -0.901806        -0.981144         2.412760
 C        -0.977373        -0.109738         1.158759
 C         0.453615         0.281812         0.904758
 C         0.892527         0.999627        -0.264353
 O         1.225605        -0.405689        -0.001812
 C         0.960685         0.588850         2.337610
 H         1.092517        -0.201388         4.960068
 H         1.016741        -2.254275         1.950481
 H        -0.038699        -2.782091         3.278873
 H        -1.873559        -1.373262         3.006461
 H        -1.305110        -0.639217         0.246747
 H        -1.653229         0.688057         1.344103
 H         0.202497         1.276581        -1.072807
 H         1.700843         1.856440        -0.186079
 H         2.010817         0.425020         2.208981
 H         0.675580         1.591869         2.579728
