19
Iteration:  2375
 O         0.071734         0.031602         4.466489
 C         0.338850        -0.435564         3.198920
 C         0.106569        -1.960602         2.970968
 C        -0.902357        -0.973457         2.465944
 C        -0.944693        -0.206670         1.205820
 C         0.509996         0.283430         0.922170
 C         0.754896         1.142986        -0.371346
 O         1.288970        -0.196557        -0.139424
 C         1.270497         0.303053         2.271698
 H         0.846858        -0.137171         5.035565
 H         0.936991        -2.380504         2.223933
 H        -0.079073        -2.398397         3.966379
 H        -1.824276        -0.787939         3.181820
 H        -1.342477        -0.675105         0.273605
 H        -1.657640         0.549299         1.442658
 H        -0.171601         1.195852        -1.073097
 H         1.598705         1.923802        -0.351278
 H         2.217323        -0.231720         2.014567
 H         1.597905         1.170572         2.798130
