19
Iteration:  4400charge 0 multiplicity 1
 O         0.186326        -0.157230         4.669248
 C         0.291205        -0.345799         3.275775
 C         0.504357        -1.818390         2.626849
 C        -0.766931        -1.019318         2.463227
 C        -1.037043        -0.255279         1.209396
 C         0.346397         0.344161         0.892544
 C         0.774087         0.912857        -0.441563
 O         1.190358        -0.368348        -0.015473
 C         1.057801         0.720933         2.332107
 H         0.607016         0.719709         4.749861
 H         1.056483        -1.898926         1.689254
 H         0.330681        -2.490628         3.389265
 H        -1.584592        -1.526456         3.020196
 H        -1.462253        -0.969801         0.366498
 H        -1.751043         0.552565         1.392576
 H        -0.026428         0.877612        -1.290430
 H         1.564691         1.644080        -0.524638
 H         2.096116         0.792873         2.549946
 H         0.608044         1.652486         2.628178
