19
Iteration:  3792
 O         0.286608        -0.137897         4.615931
 C         0.318478        -0.325382         3.226274
 C         0.335349        -1.777897         2.810777
 C        -0.845614        -0.929830         2.581459
 C        -1.035018        -0.288228         1.164021
 C         0.392258         0.234861         0.859761
 C         0.734722         0.993417        -0.342845
 O         1.337123        -0.317510        -0.156991
 C         1.008814         0.583273         2.263543
 H        -0.600605        -0.308543         4.932615
 H         0.829043        -2.067312         1.867109
 H         0.770341        -2.582728         3.518019
 H        -1.764383        -0.872739         3.232973
 H        -1.256942        -0.959436         0.235624
 H        -1.764786         0.541120         1.389354
 H         0.183636         1.168659        -1.199420
 H         1.457708         1.814122        -0.140864
 H         2.126782         0.443733         2.224702
 H         0.645157         1.646109         2.564603
