19
Iteration:  4981
 O         0.292834         0.106085         4.599257
 C         0.280784        -0.342123         3.206525
 C         0.571670        -1.862366         2.861276
 C        -0.692060        -1.188134         2.477695
 C        -0.923942        -0.660785         1.128373
 C         0.297432         0.275914         0.839269
 C         0.598504         1.122722        -0.309542
 O         1.282956        -0.123451        -0.137839
 C         0.818203         0.713936         2.333307
 H         0.379557        -0.719185         5.094026
 H         1.322411        -1.978112         2.067890
 H         0.565028        -2.562131         3.664821
 H        -1.622578        -1.466314         2.898231
 H        -0.985084        -1.599182         0.426470
 H        -1.937549        -0.207976         1.028815
 H        -0.234610         1.067850        -1.106664
 H         1.098377         2.071146        -0.169252
 H         1.876870         0.716275         2.360162
 H         0.428784         1.683856         2.631724
