19
Iteration:  2335charge 0 multiplicity 1
 O         0.209930         0.118675         4.596840
 C         0.320758        -0.474883         3.282429
 C         0.105878        -1.908613         2.863104
 C        -0.896124        -0.884230         2.489705
 C        -0.930127        -0.367999         1.020162
 C         0.472711         0.223281         0.859769
 C         0.927931         1.182741        -0.116802
 O         1.143069        -0.246924        -0.258599
 C         1.114765         0.342068         2.271391
 H         1.083285        -0.069269         5.008573
 H         0.983169        -2.161684         2.337396
 H        -0.035148        -2.647021         3.623112
 H        -1.830761        -0.894862         3.035491
 H        -1.118788        -1.273224         0.392907
 H        -1.563205         0.564783         0.827718
 H         0.153125         1.519996        -0.833788
 H         1.796120         1.737904         0.162782
 H         2.135298        -0.046165         2.281853
 H         0.856006         1.401905         2.432301
