19
Iteration:  1649
 O         0.236286         0.056735         4.531792
 C         0.261345        -0.482228         3.201642
 C         0.104154        -1.930459         2.997037
 C        -1.027434        -0.939306         2.520596
 C        -0.922173        -0.350636         1.081067
 C         0.461983         0.415242         0.974598
 C         0.809762         1.109650        -0.319803
 O         1.326817        -0.145775        -0.211101
 C         1.235387         0.333827         2.298484
 H         0.951337        -0.427845         4.988130
 H         0.338496        -2.686284         2.225065
 H        -0.347702        -2.384263         3.938424
 H        -2.034680        -1.041830         2.988004
 H        -1.114021        -0.942852         0.152795
 H        -1.767480         0.243938         1.031443
 H         0.094390         1.339180        -1.202095
 H         1.514004         1.970353        -0.440362
 H         2.218096        -0.353189         2.154798
 H         1.568631         1.271750         2.711415
