19
Iteration:   658
 O         0.239481         0.026475         4.589720
 C         0.237270        -0.317909         3.288103
 C         0.227294        -1.841659         2.786573
 C        -0.919935        -0.838168         2.447203
 C        -0.929340        -0.277570         1.028801
 C         0.513400         0.270887         0.939407
 C         0.826598         1.118510        -0.212671
 O         1.123969        -0.394143        -0.197754
 C         1.246906         0.350163         2.349412
 H        -0.513116        -0.339525         5.135772
 H         1.007310        -2.151154         2.117521
 H         0.068983        -2.602572         3.539629
 H        -1.931615        -1.027774         2.864005
 H        -1.270688        -0.956785         0.312118
 H        -1.503637         0.642316         1.053220
 H         0.001623         1.428236        -0.815455
 H         1.760989         1.517533        -0.373289
 H         2.251849        -0.088419         2.492284
 H         1.391937         1.317764         2.601311
