19
Iteration:  1874charge 0 multiplicity 1
 O         0.079513        -0.147071         4.573477
 C         0.377256        -0.438340         3.178768
 C         0.410160        -1.796563         2.643322
 C        -0.880509        -0.929443         2.447563
 C        -1.015693        -0.074131         1.210475
 C         0.396385         0.358091         0.930675
 C         0.961392         0.890941        -0.334799
 O         1.135725        -0.474506         0.040504
 C         1.035828         0.670237         2.295606
 H         0.952918        -0.114657         5.056882
 H         1.038691        -2.005463         1.686184
 H         0.171626        -2.644325         3.326044
 H        -1.703662        -1.197566         3.155836
 H        -1.443441        -0.601298         0.312137
 H        -1.581501         0.836551         1.479745
 H         0.385080         1.197106        -1.227859
 H         1.817138         1.624415        -0.295019
 H         2.113544         0.427856         2.192026
 H         0.881308         1.667095         2.758199
