19
Iteration:  1380
 O         0.101362        -0.034630         4.571247
 C         0.403734        -0.438452         3.255651
 C         0.209870        -1.866143         2.806750
 C        -0.919026        -0.748886         2.511605
 C        -0.925992        -0.338295         1.056620
 C         0.478180         0.239736         0.958279
 C         0.897277         1.103471        -0.206664
 O         1.141845        -0.319661        -0.166269
 C         1.176838         0.474112         2.254001
 H         0.791036        -0.399636         5.148573
 H         0.537171        -2.366072         1.835970
 H        -0.341129        -2.519772         3.537392
 H        -1.714336        -0.924126         3.195733
 H        -1.001818        -1.122807         0.380040
 H        -1.743296         0.408046         0.968191
 H         0.248336         1.392174        -1.068264
 H         1.792112         1.631918        -0.254615
 H         2.213206         0.321723         2.198833
 H         0.976731         1.567106         2.666518
