19
Iteration:   523charge 0 multiplicity 1
 O         0.201856        -0.183885         4.533722
 C         0.396880        -0.448053         3.111882
 C         0.226030        -1.851718         2.768449
 C        -0.868903        -0.858033         2.485265
 C        -1.013520        -0.184222         1.188197
 C         0.395124         0.375394         0.966786
 C         0.902735         0.917719        -0.401266
 O         1.257760        -0.416664         0.048586
 C         1.018116         0.673575         2.267353
 H         0.920172         0.349854         4.826939
 H         0.839183        -2.239732         1.941857
 H         0.100669        -2.340614         3.776474
 H        -1.870570        -1.082620         2.882139
 H        -1.548362        -0.655694         0.369325
 H        -1.599452         0.786887         1.373390
 H         0.089175         0.890780        -1.139303
 H         1.711120         1.651218        -0.209807
 H         2.077754         0.622035         2.167608
 H         0.754018         1.542655         2.778910
