19
Iteration:   360
 O         0.234783        -0.057395         4.652773
 C         0.244263        -0.325604         3.262217
 C         0.152421        -1.866830         2.853957
 C        -0.906518        -0.765953         2.546928
 C        -0.932908        -0.383997         1.142980
 C         0.444736         0.254675         0.866481
 C         0.905891         1.074092        -0.300325
 O         1.276016        -0.303249        -0.248445
 C         1.058069         0.448918         2.224205
 H         0.748146        -0.749122         5.145770
 H         0.863318        -2.196751         2.054906
 H         0.014138        -2.495694         3.735545
 H        -1.844984        -0.676777         3.025117
 H        -1.147298        -1.222140         0.516928
 H        -1.777932         0.270485         0.948452
 H         0.198092         1.269011        -1.086802
 H         1.705695         1.824979        -0.030568
 H         2.168563         0.383149         2.318973
 H         0.812018         1.565982         2.464647
