19
Iteration:  2460
 O         0.384427        -0.074284         4.585122
 C         0.318811        -0.468063         3.216982
 C         0.140889        -1.877834         2.775819
 C        -0.942143        -0.847617         2.512869
 C        -1.112624        -0.299421         1.018409
 C         0.360535         0.354725         0.864311
 C         1.010558         1.005404        -0.311428
 O         1.306335        -0.340474         0.043194
 C         0.963076         0.614132         2.270218
 H         1.101590        -0.596900         4.950675
 H         0.707823        -2.430915         1.939882
 H        -0.098193        -2.597058         3.569937
 H        -1.961896        -1.053600         3.054667
 H        -1.346816        -0.892659         0.116532
 H        -1.778513         0.615899         1.084515
 H         0.453903         1.158923        -1.175659
 H         1.571258         1.923547        -0.134040
 H         2.105471         0.580099         2.178211
 H         0.831708         1.576331         2.923032
