19
Iteration:  4187
 O         0.322969         0.040759         4.601350
 C         0.330848        -0.386897         3.219310
 C         0.343575        -1.917105         2.921205
 C        -0.808660        -1.013979         2.498945
 C        -0.892303        -0.429755         1.067080
 C         0.418648         0.247260         0.872714
 C         0.589840         1.191123        -0.339801
 O         1.220795        -0.250224        -0.192485
 C         1.035003         0.550104         2.335861
 H        -0.548594        -0.172407         5.067569
 H         1.203332        -2.108871         2.315684
 H         0.155859        -2.539328         3.829094
 H        -1.777955        -1.247097         3.046679
 H        -1.033871        -1.258105         0.407264
 H        -1.796059         0.243330         0.947919
 H         0.007673         1.305057        -1.255692
 H         1.382290         1.954434        -0.129009
 H         2.073964         0.262890         2.261072
 H         0.942164         1.451769         2.782152
