19
Iteration:  3976
 O         0.397824        -0.034543         4.529580
 C         0.277438        -0.409753         3.172164
 C         0.355791        -1.831573         2.899811
 C        -0.895083        -0.951128         2.514852
 C        -1.003399        -0.467167         1.140264
 C         0.333133         0.313577         0.867035
 C         0.717033         1.061502        -0.189791
 O         1.332234        -0.222435        -0.175852
 C         1.014687         0.546136         2.252474
 H        -0.530509         0.183002         4.840105
 H         0.949930        -2.194763         1.952604
 H         0.125338        -2.487705         3.788494
 H        -1.781916        -1.089217         3.087814
 H        -1.226826        -1.278143         0.511524
 H        -1.814562         0.242254         1.114612
 H         0.067717         1.325599        -1.021888
 H         1.538541         1.851015        -0.032158
 H         2.094212         0.355372         2.286953
 H         0.819775         1.490086         2.648752
