19
Iteration:  2281
 O         0.254529        -0.082646         4.599941
 C         0.405371        -0.475650         3.201108
 C         0.053432        -1.871966         2.891605
 C        -0.907350        -0.811054         2.493829
 C        -0.986275        -0.299813         1.098452
 C         0.437155         0.296192         0.875011
 C         0.742534         1.041837        -0.342214
 O         1.415085        -0.224189        -0.053919
 C         1.100188         0.481177         2.233994
 H         1.015958        -0.586037         5.004663
 H         0.363940        -2.350739         2.008638
 H        -0.317651        -2.472050         3.681774
 H        -1.861229        -0.773809         3.046559
 H        -1.316455        -1.141189         0.448557
 H        -1.759277         0.422332         0.691836
 H        -0.039474         1.077415        -1.113838
 H         1.374906         1.865030        -0.234075
 H         2.234477         0.343506         2.324937
 H         0.964305         1.623188         2.708492
