19
Iteration:  2914
 O         0.214437         0.006024         4.525755
 C         0.307387        -0.442303         3.233703
 C         0.368445        -1.846540         2.642657
 C        -0.895516        -1.014295         2.362734
 C        -0.936445        -0.078539         1.151157
 C         0.460524         0.353044         0.991813
 C         0.852266         0.897802        -0.307561
 O         1.155868        -0.470780        -0.022128
 C         0.994858         0.615447         2.405764
 H         0.845490        -0.562746         5.024764
 H         1.153435        -2.173682         1.923862
 H         0.207475        -2.507066         3.477929
 H        -1.735896        -1.271737         2.899784
 H        -1.305798        -0.535926         0.190725
 H        -1.650417         0.802648         1.315007
 H         0.091370         1.166260        -0.940178
 H         1.591582         1.667742        -0.399624
 H         2.052622         0.905189         2.550477
 H         0.508799         1.547388         2.858377
