19
Iteration:  3554charge 0 multiplicity 1
 O         0.203412         0.150153         4.528060
 C         0.327852        -0.432262         3.203739
 C         0.042042        -1.971687         2.993465
 C        -0.919262        -0.958420         2.487256
 C        -0.837968        -0.466880         1.104883
 C         0.459343         0.237851         0.917658
 C         0.734763         1.209306        -0.241008
 O         1.242403        -0.150136        -0.215333
 C         1.217144         0.363514         2.254396
 H         1.019499         0.084237         5.018278
 H         0.710896        -2.614105         2.334989
 H        -0.402336        -2.610144         3.753815
 H        -1.759549        -0.667293         3.095214
 H        -0.940861        -1.272322         0.353671
 H        -1.624629         0.218021         0.926039
 H         0.036956         1.217109        -1.069135
 H         1.499745         2.102475        -0.131222
 H         2.193597        -0.123275         2.080905
 H         1.347303         1.321985         2.707482
