19
Iteration:  3436
 O         0.196505         0.047763         4.499897
 C         0.292850        -0.437701         3.216315
 C         0.323270        -1.818264         2.891472
 C        -0.860489        -0.901382         2.416438
 C        -1.037100        -0.130070         1.145996
 C         0.427769         0.195033         0.909671
 C         0.823415         1.018410        -0.239529
 O         1.281266        -0.335805        -0.200233
 C         1.071971         0.391302         2.330867
 H         0.414779        -0.743850         5.075907
 H         1.033345        -2.357638         2.250567
 H         0.086432        -2.444664         3.819998
 H        -1.775147        -1.169986         2.909359
 H        -1.726313        -0.560030         0.417906
 H        -1.435162         0.920765         1.467056
 H         0.083101         1.105949        -0.992418
 H         1.565036         1.851333        -0.110252
 H         2.171938         0.124587         2.422406
 H         0.943595         1.499998         2.602639
