19
Iteration:  3984charge 0 multiplicity 1
 O         0.411949        -0.065375         4.517477
 C         0.325729        -0.376326         3.203193
 C         0.338526        -1.814625         2.852905
 C        -0.880997        -0.987081         2.522142
 C        -0.995278        -0.464282         1.097249
 C         0.379181         0.278514         0.928222
 C         0.771349         1.080952        -0.308238
 O         1.247293        -0.228698        -0.131758
 C         0.950902         0.558491         2.365710
 H        -0.435966         0.404976         4.777820
 H         0.945579        -2.139342         2.084394
 H         0.286516        -2.505064         3.706006
 H        -1.887828        -1.019109         2.996101
 H        -1.188234        -1.346095         0.362308
 H        -1.797129         0.356711         0.974068
 H         0.015023         1.214083        -1.073745
 H         1.534212         1.894730        -0.122789
 H         2.011036         0.376846         2.199120
 H         0.812345         1.581165         2.713601
