19
Iteration:  1494
 O         0.357341        -0.161590         4.712565
 C         0.271867        -0.388589         3.271988
 C         0.345619        -1.734414         2.654492
 C        -0.883986        -0.827626         2.409861
 C        -1.074691        -0.090564         1.086205
 C         0.385316         0.386121         0.896820
 C         1.018220         0.867094        -0.324951
 O         1.156848        -0.494581        -0.010827
 C         0.908931         0.606794         2.288473
 H        -0.116869        -0.858453         5.178252
 H         1.122108        -1.799335         1.877120
 H         0.307938        -2.436562         3.436545
 H        -1.783032        -1.416054         2.641686
 H        -1.325624        -0.806051         0.268232
 H        -1.798462         0.641955         1.280906
 H         0.451996         1.119754        -1.249131
 H         1.957282         1.592468        -0.153858
 H         2.091939         0.504396         2.156342
 H         0.715258         1.551991         2.672298
