19
Iteration:  3515
 O         0.392282        -0.056330         4.603452
 C         0.248433        -0.362468         3.212670
 C        -0.006625        -1.838176         2.995322
 C        -1.021682        -0.917211         2.520066
 C        -0.945541        -0.518963         1.072816
 C         0.527881         0.167256         0.882141
 C         0.680266         1.104314        -0.227387
 O         1.447225        -0.080808        -0.277479
 C         1.149765         0.387683         2.248464
 H         0.368457         0.958033         4.618553
 H         0.594267        -2.489596         2.345693
 H        -0.320912        -2.303021         3.895134
 H        -1.898304        -0.619001         3.201511
 H        -1.193056        -1.286802         0.344380
 H        -1.676241         0.370536         0.879310
 H         0.005226         1.386781        -1.043815
 H         1.278624         1.874397         0.095442
 H         2.158001        -0.060241         2.383257
 H         1.179521         1.513966         2.334461
