19
Iteration:  1065
 O         0.459494        -0.280291         4.633662
 C         0.202048        -0.305598         3.262137
 C         0.109615        -1.769933         2.726789
 C        -1.042908        -0.800259         2.451946
 C        -0.953969        -0.214129         1.045642
 C         0.466133         0.297128         1.010700
 C         0.989640         0.931068        -0.320462
 O         1.265977        -0.446231        -0.093930
 C         0.911403         0.648280         2.308604
 H         1.427465        -0.091745         4.835547
 H         0.866609        -2.115261         1.973073
 H        -0.037198        -2.464707         3.571402
 H        -2.038818        -0.816416         2.973125
 H        -1.206454        -0.991275         0.276527
 H        -1.714789         0.593650         0.890641
 H         0.214219         1.080191        -1.054945
 H         1.647440         1.809165        -0.149119
 H         2.058455         0.916951         2.506859
 H         0.499345         1.674680         2.444244
