19
Iteration:  4876
 O         0.198705        -0.026621         4.537242
 C         0.307740        -0.358124         3.168287
 C         0.553108        -1.809405         2.846621
 C        -0.795059        -1.190911         2.586690
 C        -0.921015        -0.557732         1.099175
 C         0.374669         0.297378         0.943129
 C         0.563880         1.119426        -0.289134
 O         1.304245        -0.203333        -0.114305
 C         0.882207         0.700453         2.244043
 H         1.058402        -0.049957         5.010148
 H         1.205680        -2.147740         1.974937
 H         0.710850        -2.406894         3.732202
 H        -1.703891        -1.233829         3.236203
 H        -0.965531        -1.178846         0.292510
 H        -1.831659         0.036168         1.208373
 H        -0.150581         1.117829        -1.088348
 H         1.168944         2.042103        -0.317683
 H         1.995345         0.852574         2.209000
 H         0.381859         1.658180         2.512019
