19
Iteration:  4002
 O         0.372328        -0.125913         4.728807
 C         0.307036        -0.401360         3.232504
 C         0.334011        -1.867684         2.782719
 C        -0.905704        -1.039839         2.497808
 C        -0.930982        -0.383242         1.089455
 C         0.402533         0.402156         0.865766
 C         0.726444         1.053781        -0.345782
 O         1.202900        -0.307622        -0.046730
 C         1.016320         0.676849         2.225745
 H         0.100703         0.853966         4.745146
 H         0.951760        -2.111619         1.888000
 H         0.162174        -2.620319         3.536006
 H        -1.864321        -1.392398         3.002396
 H        -0.877552        -1.183843         0.329422
 H        -1.764748         0.305777         0.968236
 H         0.014844         1.063667        -1.193247
 H         1.566018         1.672158        -0.385752
 H         2.134468         0.768065         2.312805
 H         0.487890         1.710819         2.439019
