19
Iteration:  4007
 O         0.351471        -0.149688         4.743405
 C         0.307397        -0.388006         3.227414
 C         0.350684        -1.852837         2.776872
 C        -0.862126        -1.031206         2.473100
 C        -0.939072        -0.363106         1.125315
 C         0.385227         0.449383         0.875527
 C         0.704265         1.004732        -0.362443
 O         1.237956        -0.335175        -0.062423
 C         0.982459         0.694540         2.247195
 H         0.316085         0.806927         4.759516
 H         0.961971        -2.140600         1.918468
 H         0.120040        -2.685263         3.458322
 H        -1.859732        -1.251741         2.801140
 H        -0.997428        -1.251848         0.399196
 H        -1.805125         0.366034         0.958192
 H        -0.031793         1.055915        -1.147127
 H         1.644512         1.656902        -0.358719
 H         2.055411         0.819724         2.193751
 H         0.530032         1.637010         2.500761
