19
Iteration:   570
 O         0.461245        -0.176353         4.623486
 C         0.239383        -0.356396         3.259597
 C         0.113722        -1.761788         2.739188
 C        -1.050323        -0.833114         2.500743
 C        -0.965193        -0.317818         1.030445
 C         0.373958         0.267267         0.947306
 C         0.873443         1.011471        -0.292484
 O         1.314418        -0.361124        -0.113683
 C         1.017910         0.560849         2.353544
 H         0.941106         0.682438         4.793509
 H         0.848468        -2.107026         1.992349
 H        -0.221558        -2.444583         3.490036
 H        -2.000140        -0.979640         3.043735
 H        -1.011608        -1.174739         0.424304
 H        -1.665179         0.390773         0.621640
 H         0.353034         1.098081        -1.217630
 H         1.680196         1.720661        -0.002614
 H         2.111066         0.399459         2.474142
 H         0.826274         1.583956         2.491613
