19
Iteration:  2442charge 0 multiplicity 1
 O         0.303848        -0.118491         4.558776
 C         0.320735        -0.397726         3.182070
 C         0.142473        -1.798132         2.822056
 C        -0.986623        -0.841115         2.498772
 C        -1.022983        -0.297577         1.124981
 C         0.339520         0.291831         0.907987
 C         0.961709         1.055749        -0.157365
 O         1.315606        -0.347555        -0.111418
 C         1.007341         0.543472         2.209318
 H         1.052847        -0.654607         4.857200
 H         0.766950        -2.181845         1.971579
 H         0.041638        -2.462706         3.722191
 H        -1.852028        -0.825447         3.146719
 H        -1.111431        -1.196621         0.516942
 H        -1.869127         0.263749         0.898058
 H         0.506194         1.519020        -1.150734
 H         1.900992         1.638846        -0.003039
 H         2.091918         0.513771         2.206047
 H         0.915371         1.587790         2.347723
