19
Iteration:  2676
 O         0.351866         0.181755         4.478343
 C         0.275109        -0.490131         3.259790
 C         0.031682        -1.932687         3.013884
 C        -0.990854        -0.968358         2.488128
 C        -0.942693        -0.440833         1.057699
 C         0.476653         0.181254         0.881355
 C         0.819605         1.216691        -0.170903
 O         1.320829        -0.106138        -0.212878
 C         1.141425         0.318786         2.210919
 H         0.404317        -0.498011         5.191329
 H         0.720376        -2.401629         2.321130
 H        -0.349873        -2.558793         3.887635
 H        -1.977009        -0.868647         2.993456
 H        -1.241478        -1.111129         0.246188
 H        -1.536561         0.390805         0.954433
 H        -0.044378         1.356674        -0.853883
 H         1.632890         2.064977         0.013234
 H         2.136929        -0.084968         2.211637
 H         1.272017         1.319668         2.610997
