19
Iteration:  3276
 O         0.313105        -0.222520         4.662052
 C         0.308654        -0.372275         3.238376
 C         0.258747        -1.825907         2.736436
 C        -0.882140        -0.853505         2.529026
 C        -1.016528        -0.187628         1.142967
 C         0.347434         0.326447         0.907182
 C         0.996630         0.928427        -0.394718
 O         1.207436        -0.410176        -0.161640
 C         1.022909         0.693668         2.353136
 H        -0.549077         0.243733         4.898140
 H         0.819249        -2.136315         1.848349
 H         0.293825        -2.568885         3.582375
 H        -1.836572        -1.134387         2.968126
 H        -1.345477        -0.851293         0.348996
 H        -1.789333         0.528281         1.318665
 H         0.359114         1.199871        -1.316137
 H         1.877962         1.554552        -0.131481
 H         2.073184         0.439009         2.426515
 H         0.851082         1.752815         2.625625
