19
Iteration:  3985charge 0 multiplicity 1
 O         0.410971        -0.067284         4.522354
 C         0.328590        -0.377279         3.210137
 C         0.332594        -1.813998         2.848423
 C        -0.885623        -0.990117         2.524029
 C        -0.991287        -0.461823         1.090304
 C         0.382561         0.272402         0.935470
 C         0.774540         1.085243        -0.320122
 O         1.238979        -0.232037        -0.125484
 C         0.950203         0.567752         2.363964
 H        -0.410626         0.425193         4.778892
 H         0.978144        -2.159255         2.059189
 H         0.305334        -2.517306         3.707558
 H        -1.867648        -1.037946         3.003782
 H        -1.172135        -1.305164         0.351663
 H        -1.793733         0.335908         0.963518
 H         0.016667         1.206690        -1.082634
 H         1.538234         1.924666        -0.141676
 H         2.008536         0.391598         2.207298
 H         0.814468         1.559946         2.699280
