19
Iteration:    51charge 0 multiplicity 1
 O         0.486553        -0.203394         4.569777
 C         0.257243        -0.380807         3.176852
 C         0.082847        -1.790858         2.822056
 C        -1.122772        -0.889441         2.549391
 C        -0.987343        -0.259131         1.095342
 C         0.394981         0.386268         0.845559
 C         0.951580         0.953790        -0.347856
 O         1.393722        -0.369897         0.047314
 C         0.923145         0.674583         2.259158
 H         1.313326        -0.731022         4.780090
 H         0.509590        -2.144738         1.920344
 H         0.073624        -2.452452         3.720774
 H        -2.042440        -0.957510         3.095849
 H        -1.143764        -1.051349         0.278144
 H        -1.917808         0.455178         0.928235
 H         0.471386         0.928429        -1.398584
 H         1.661664         1.869118        -0.237712
 H         2.026099         0.685079         2.316917
 H         0.479405         1.660311         2.646482
