19
Iteration:   582
 O         0.449627        -0.169365         4.558025
 C         0.264459        -0.373003         3.185710
 C         0.091554        -1.865019         2.914965
 C        -0.986925        -0.830893         2.456531
 C        -1.007901        -0.305830         1.055928
 C         0.448033         0.311183         0.887299
 C         0.911045         1.022603        -0.244865
 O         1.292665        -0.338101        -0.062865
 C         1.017930         0.570154         2.280649
 H         0.519295         0.802293         4.731725
 H         0.467216        -2.340403         1.993544
 H        -0.079030        -2.557268         3.677377
 H        -1.987788        -0.850186         2.894727
 H        -1.005213        -1.107203         0.355533
 H        -1.871507         0.298266         0.878622
 H         0.161514         1.230731        -1.006835
 H         1.571738         1.870835        -0.125049
 H         2.107145         0.320571         2.215731
 H         0.895831         1.517207         2.753414
