19
Iteration:  1705
 O         0.171284         0.091053         4.505932
 C         0.281591        -0.419315         3.211826
 C         0.149031        -1.874185         2.895963
 C        -0.974090        -0.933046         2.546200
 C        -0.945124        -0.349150         1.149893
 C         0.525524         0.219848         0.946681
 C         0.934146         1.181264        -0.109731
 O         1.187283        -0.227369        -0.370486
 C         1.176481         0.347453         2.261042
 H         0.009595        -0.630179         5.122955
 H         0.957911        -2.211130         2.169866
 H         0.046338        -2.625450         3.641310
 H        -1.879385        -0.731667         3.278998
 H        -0.931392        -1.133384         0.341498
 H        -1.724904         0.338482         1.199575
 H         0.170789         1.572899        -0.867566
 H         1.854139         1.632277         0.094241
 H         2.204337        -0.120742         2.278209
 H         1.284743         1.448341         2.462392
