19
Iteration:  1426charge 0 multiplicity 1
 O         0.529802        -0.038905         4.642663
 C         0.211992        -0.430733         3.240632
 C         0.024617        -1.913492         2.758184
 C        -1.054500        -0.839464         2.457902
 C        -1.036529        -0.192097         1.052099
 C         0.443383         0.276905         0.869007
 C         0.843023         0.970090        -0.411731
 O         1.490159        -0.278687         0.008849
 C         1.000608         0.523604         2.333598
 H         0.503049        -0.917178         5.130045
 H         0.718983        -2.253407         2.049130
 H        -0.110643        -2.515205         3.659975
 H        -2.111157        -1.175109         2.810946
 H        -1.434609        -0.941028         0.403395
 H        -1.672936         0.696824         1.013657
 H         0.004378         0.944520        -1.181943
 H         1.344483         1.941463        -0.346116
 H         2.121528         0.483460         2.525301
 H         0.650127         1.507880         2.641050
