19
Iteration:   783
 O         0.138803        -0.215758         4.623277
 C         0.424902        -0.351537         3.151927
 C         0.288491        -1.844926         2.703709
 C        -0.884155        -0.865197         2.462837
 C        -1.041156        -0.044029         1.173150
 C         0.396750         0.340407         0.882698
 C         0.917674         0.875450        -0.345669
 O         1.224377        -0.456888         0.058508
 C         1.041084         0.658760         2.291706
 H         1.061946        -0.359528         5.001396
 H         0.763408        -2.252351         1.773100
 H         0.254246        -2.493601         3.562791
 H        -1.651425        -1.137604         3.132863
 H        -1.493945        -0.632541         0.310661
 H        -1.613716         0.823688         1.302827
 H         0.271014         0.940956        -1.233886
 H         1.765012         1.609284        -0.542323
 H         2.056832         0.863145         2.134608
 H         0.552874         1.588664         2.536574
