19
Iteration:  1350
 O         0.103826         0.074377         4.556589
 C         0.228975        -0.461200         3.212382
 C         0.274619        -1.985676         2.861293
 C        -0.951840        -0.961680         2.525416
 C        -0.990621        -0.181108         1.161947
 C         0.505230         0.251216         0.931865
 C         0.901610         1.129089        -0.225226
 O         1.211976        -0.284405        -0.258583
 C         1.198106         0.347633         2.287274
 H         0.899334         0.595090         4.739876
 H         0.760630        -2.300977         1.977993
 H        -0.003963        -2.603393         3.720252
 H        -1.870635        -1.190579         3.128345
 H        -1.360250        -0.721912         0.270470
 H        -1.558506         0.705637         1.421470
 H         0.236391         1.492857        -1.127795
 H         1.794073         1.800127        -0.151902
 H         2.297527         0.008144         2.329197
 H         1.255714         1.336740         2.583917
