19
Iteration:  4289
 O         0.286891         0.047231         4.603072
 C         0.379262        -0.419273         3.261535
 C         0.228976        -1.863466         2.899281
 C        -0.913752        -1.010338         2.575282
 C        -0.894228        -0.515697         1.113231
 C         0.464939         0.205246         0.886012
 C         0.558178         1.140632        -0.339833
 O         1.305262        -0.108511        -0.191045
 C         1.122091         0.538909         2.217745
 H        -0.037307        -0.669541         5.159102
 H         0.871245        -2.495932         2.308595
 H         0.249054        -2.548747         3.794772
 H        -1.875342        -1.073739         3.046897
 H        -0.826680        -1.459611         0.388270
 H        -1.655392         0.227944         0.925526
 H        -0.253326         1.273657        -1.121446
 H         1.070693         2.148617        -0.266732
 H         2.198239         0.451861         2.252719
 H         0.951354         1.648016         2.282758
