19
Iteration:  2438charge 0 multiplicity 1
 O         0.279985        -0.113073         4.554689
 C         0.290452        -0.414554         3.195692
 C         0.144966        -1.793025         2.816236
 C        -0.994246        -0.821054         2.545887
 C        -0.985561        -0.316805         1.138591
 C         0.386805         0.247786         0.906242
 C         0.965981         1.060360        -0.167497
 O         1.277575        -0.331554        -0.132959
 C         1.017520         0.548382         2.184309
 H         1.056922        -0.661997         4.848093
 H         0.791016        -2.237753         1.972808
 H         0.172100        -2.442137         3.690055
 H        -2.020730        -0.896099         3.126763
 H        -1.007115        -1.184433         0.454477
 H        -1.815898         0.397598         0.823333
 H         0.505116         1.520984        -0.968628
 H         1.839727         1.712640         0.010686
 H         2.161945         0.495000         2.160288
 H         0.983103         1.699325         2.424558
