19
Iteration:  1294charge 0 multiplicity 1
 O         0.198235         0.006613         4.501621
 C         0.329554        -0.469783         3.203406
 C         0.043826        -1.873246         2.857347
 C        -0.925735        -0.835886         2.580340
 C        -0.904772        -0.393880         1.136368
 C         0.503544         0.317708         0.934391
 C         0.866002         1.149296        -0.256966
 O         1.227682        -0.264364        -0.202890
 C         1.158088         0.413575         2.299242
 H         0.791656        -0.431790         5.196968
 H         0.705235        -2.240246         2.047660
 H        -0.057702        -2.545949         3.702506
 H        -1.845396        -0.789533         3.083225
 H        -1.027423        -1.149297         0.407814
 H        -1.757525         0.278370         0.960866
 H         0.063542         1.395419        -1.063162
 H         1.748170         1.747172        -0.266872
 H         2.213440         0.180610         2.182047
 H         1.007265         1.414601         2.639107
