19
Iteration:  3451charge 0 multiplicity 1
 O         0.224812         0.071331         4.526932
 C         0.317958        -0.439441         3.219122
 C         0.192822        -1.918405         2.909197
 C        -0.942901        -0.965634         2.551992
 C        -0.940522        -0.246243         1.194381
 C         0.495244         0.234884         0.882653
 C         0.845827         1.101537        -0.268969
 O         1.247569        -0.303496        -0.196217
 C         1.128475         0.452202         2.194935
 H        -0.166583        -0.615967         5.116676
 H         0.889636        -2.229447         2.132271
 H        -0.099664        -2.619219         3.624529
 H        -1.856180        -0.913448         3.234307
 H        -1.213358        -0.820842         0.298687
 H        -1.637222         0.618769         1.261434
 H         0.100702         1.503629        -0.996043
 H         1.664289         1.746871        -0.140298
 H         2.197521         0.392497         2.176528
 H         0.910029         1.449538         2.518220
