19
Iteration:  1599
 O         0.357753        -0.108314         4.580297
 C         0.290318        -0.362704         3.245708
 C        -0.010481        -1.807156         2.765702
 C        -1.025148        -0.846874         2.537612
 C        -0.898338        -0.389119         1.093750
 C         0.472322         0.147884         0.920515
 C         0.883291         1.063691        -0.178600
 O         1.338597        -0.273671        -0.278055
 C         1.040048         0.535766         2.371541
 H         1.230414         0.049267         4.915576
 H         0.687436        -2.183820         1.978531
 H         0.035995        -2.422296         3.607634
 H        -2.068179        -0.619291         2.985228
 H        -1.281819        -1.216288         0.495117
 H        -1.702210         0.418387         0.696079
 H         0.113678         1.424254        -0.879241
 H         1.604683         1.830839        -0.063519
 H         2.065290         0.536192         2.530876
 H         0.658508         1.612517         2.543109
