19
Iteration:  2000charge 0 multiplicity 1
 O         0.141080         0.076779         4.626845
 C         0.250333        -0.433708         3.261052
 C         0.103525        -1.921118         2.925912
 C        -0.963297        -0.868699         2.530552
 C        -0.835990        -0.385605         1.105433
 C         0.575418         0.251423         0.908908
 C         0.832880         1.201443        -0.252796
 O         1.164879        -0.200130        -0.360731
 C         1.232417         0.309038         2.285617
 H         0.671588        -0.527932         5.168614
 H         0.901566        -2.295514         2.325305
 H        -0.151804        -2.624549         3.677185
 H        -1.914976        -0.667121         3.013949
 H        -1.005981        -1.162964         0.366295
 H        -1.643387         0.255092         0.814414
 H        -0.012287         1.560083        -0.953412
 H         1.742888         1.861654        -0.073006
 H         2.252204        -0.226684         2.419128
 H         1.418711         1.401014         2.523688
