19
Iteration:  2592charge 0 multiplicity 1
 O         0.257655         0.043206         4.567672
 C         0.296289        -0.410973         3.246392
 C         0.189391        -1.906709         2.715832
 C        -0.941660        -0.948492         2.488694
 C        -1.037493        -0.247836         1.133848
 C         0.384653         0.337191         0.963864
 C         0.865686         1.009126        -0.299883
 O         1.352856        -0.316276        -0.089188
 C         1.080531         0.460470         2.280245
 H         1.107207        -0.193831         4.977569
 H         0.793536        -2.197473         1.847897
 H         0.085578        -2.723362         3.545725
 H        -1.846080        -1.037694         2.976359
 H        -1.424918        -0.839339         0.265770
 H        -1.696929         0.757786         1.292360
 H         0.183574         1.087403        -1.142517
 H         1.618134         1.698721        -0.304815
 H         2.201168         0.358665         2.462928
 H         0.667652         1.370496         2.798325
