19
Iteration:  3651
 O        -2.871714        -0.789460         1.537657
 C        -1.782728        -1.390227         0.939335
 C        -2.039791        -2.538698        -0.101155
 C        -1.720232        -1.130392        -0.597377
 O        -0.349749        -0.990655        -1.020136
 C         0.396023        -0.645877         0.164819
 C         1.196533         0.743457        -0.027466
 C         1.819338        -0.625395        -0.095336
 C        -0.361683        -1.159680         1.373565
 H        -3.215591        -1.421750         2.211817
 H        -1.248557        -3.261045        -0.384548
 H        -3.097602        -2.742942        -0.322486
 H        -2.294018        -0.457772        -1.076045
 H         0.775547         1.309288        -0.871982
 H         1.462828         1.382899         0.849058
 H         2.145226        -0.923714        -1.049196
 H         2.588180        -0.887235         0.753911
 H         0.104928        -1.896476         2.022219
 H        -0.571170        -0.258482         2.011550
