19
Iteration:  4623charge 0 multiplicity 1
 O        -2.894025        -0.727313         1.475085
 C        -1.794084        -1.289367         0.849452
 C        -1.858751        -2.578136         0.081883
 C        -1.686155        -1.258979        -0.646615
 O        -0.448419        -0.794828        -1.013953
 C         0.337663        -0.591419         0.128200
 C         1.193093         0.609505         0.103122
 C         1.830902        -0.775526        -0.200917
 C        -0.407209        -1.072679         1.388539
 H        -3.021737        -1.263991         2.268184
 H        -0.999746        -3.272395         0.102515
 H        -2.840711        -3.017684        -0.248244
 H        -2.569085        -0.869990        -1.247449
 H         0.954083         1.273046        -0.768558
 H         1.476987         1.021093         1.074420
 H         2.051021        -1.119441        -1.270831
 H         2.513780        -1.347452         0.500781
 H         0.133263        -1.925714         1.874361
 H        -0.414628        -0.229777         2.190838
