19
Iteration:  2900
 O        -3.055038        -0.944643         1.426027
 C        -1.733243        -1.384665         0.959507
 C        -1.617304        -2.605024         0.032329
 C        -1.755864        -1.173944        -0.514100
 O        -0.595523        -0.538603        -0.998973
 C         0.330349        -0.556960         0.063385
 C         1.440471         0.472080         0.033342
 C         1.773762        -0.979757        -0.208725
 C        -0.460586        -0.771806         1.401383
 H        -3.317685        -1.673515         2.039095
 H        -0.567757        -3.011250        -0.053408
 H        -2.578217        -3.182119        -0.028463
 H        -2.528578        -0.728275        -1.101179
 H         1.384560         1.079452        -0.955417
 H         1.681749         1.004629         0.895906
 H         2.157498        -1.365540        -1.220851
 H         2.174132        -1.622173         0.618997
 H         0.058639        -1.507745         2.058398
 H        -0.605380         0.154889         2.007687
