19
Iteration:  4721
 O        -2.921505        -0.891621         1.700920
 C        -1.823181        -1.235858         0.847274
 C        -2.063601        -2.543245        -0.031663
 C        -1.707216        -1.152506        -0.678318
 O        -0.372971        -0.927534        -1.059862
 C         0.470168        -0.629544         0.157233
 C         1.197751         0.655009        -0.054324
 C         1.917459        -0.707286        -0.062640
 C        -0.366834        -0.977345         1.377555
 H        -3.510727        -1.652484         1.531376
 H        -1.208192        -3.275439        -0.154297
 H        -3.123120        -2.864799        -0.143810
 H        -2.488885        -0.606275        -1.386445
 H         0.984216         0.935964        -1.139205
 H         1.360483         1.204314         0.857986
 H         2.335050        -1.238009        -0.976631
 H         2.493731        -0.948000         0.860512
 H        -0.142716        -1.872828         1.873807
 H        -0.286319        -0.079328         2.066789
