19
Iteration:  1677charge 0 multiplicity 1
 O        -2.964487        -1.036872         1.598578
 C        -1.759235        -1.353275         0.901721
 C        -1.727275        -2.601217        -0.085057
 C        -1.729876        -1.211073        -0.639940
 O        -0.593415        -0.609023        -1.031292
 C         0.366678        -0.439855         0.117603
 C         1.466984         0.565173        -0.105591
 C         1.669067        -1.012429        -0.018174
 C        -0.438523        -0.697343         1.407416
 H        -2.978670        -1.660771         2.330693
 H        -0.927919        -3.293543        -0.156457
 H        -2.648165        -3.182392        -0.144663
 H        -2.613144        -0.965207        -1.152659
 H         1.505465         0.776055        -1.147449
 H         1.902872         1.208841         0.688332
 H         2.035930        -1.398059        -0.916546
 H         2.147171        -1.523865         0.834018
 H         0.165136        -1.442958         2.020284
 H        -0.654266         0.232358         1.933138
