19
Iteration:  4807charge 0 multiplicity 1
 O        -2.950493        -0.638447         1.549797
 C        -1.861567        -1.405016         0.870553
 C        -1.954755        -2.646484        -0.066732
 C        -1.748329        -1.291025        -0.593286
 O        -0.465034        -0.829901        -1.015945
 C         0.362767        -0.582701         0.114218
 C         1.223520         0.662460         0.060592
 C         1.951359        -0.717729        -0.063928
 C        -0.339917        -1.138292         1.264733
 H        -2.734559        -0.676870         2.477238
 H        -1.094480        -3.319180         0.165029
 H        -2.867193        -3.266292        -0.269093
 H        -2.644095        -0.783676        -1.171924
 H         1.206859         1.225596        -0.919146
 H         1.373955         1.413607         0.867640
 H         2.331281        -0.931315        -1.084831
 H         2.531277        -1.007195         0.893154
 H         0.223090        -2.027181         1.750002
 H        -0.092809        -0.301023         2.013922
