19
Iteration:   938charge 0 multiplicity 1
 O        -2.796321        -0.922382         1.663901
 C        -1.781278        -1.386212         0.842625
 C        -2.019905        -2.546521        -0.108281
 C        -1.790456        -1.155597        -0.645640
 O        -0.484280        -0.888797        -1.024885
 C         0.450006        -0.589817         0.113748
 C         1.148821         0.687217        -0.083397
 C         1.897789        -0.672083         0.043979
 C        -0.350428        -1.007144         1.310163
 H        -3.021482        -1.198646         2.588750
 H        -1.254448        -3.289611        -0.194743
 H        -3.095202        -2.954972        -0.270528
 H        -2.591209        -0.597839        -1.208665
 H         1.240650         1.004460        -1.102279
 H         1.228082         1.506606         0.563449
 H         2.468427        -0.895549        -0.797143
 H         2.377001        -1.026402         0.942082
 H         0.055882        -1.951643         1.787557
 H        -0.380344        -0.173980         2.090156
