19
Iteration:  4395
 O        -3.010525        -1.232420         1.551340
 C        -1.741694        -1.372004         0.903850
 C        -1.516702        -2.594776         0.030603
 C        -1.703147        -1.164663        -0.697905
 O        -0.614037        -0.379809        -1.102913
 C         0.249501        -0.373156         0.162807
 C         1.710161         0.270128        -0.096826
 C         1.517246        -1.158715         0.021058
 C        -0.608946        -0.410592         1.417736
 H        -3.078775        -1.944826         2.256698
 H        -0.478544        -2.999540         0.027801
 H        -2.310153        -3.356298        -0.083994
 H        -2.601420        -0.807745        -1.146111
 H         1.822202         0.630625        -1.175564
 H         2.241108         0.872221         0.570503
 H         1.751808        -1.648252        -0.985214
 H         1.964483        -1.572322         0.958061
 H         0.056176        -0.865452         2.204690
 H        -1.072617         0.548257         1.602077
