19
Iteration:  1120charge 0 multiplicity 1
 O        -2.872576        -0.822947         1.616332
 C        -1.796093        -1.378412         0.873165
 C        -2.082367        -2.512245        -0.039502
 C        -1.698020        -1.112192        -0.561568
 O        -0.353385        -1.031860        -1.070330
 C         0.453488        -0.603592         0.109731
 C         1.090495         0.708303        -0.003101
 C         1.915694        -0.611197        -0.149547
 C        -0.359410        -1.128026         1.389875
 H        -3.298310        -1.576506         2.017636
 H        -1.197601        -3.116757        -0.110912
 H        -3.065180        -2.834266        -0.151024
 H        -2.535051        -0.487124        -0.981088
 H         0.824091         1.119647        -1.009755
 H         1.176152         1.528882         0.829259
 H         2.116833        -0.860395        -1.130424
 H         2.632684        -0.941025         0.616235
 H         0.212450        -1.793073         2.004031
 H        -0.339473        -0.315238         2.053114
