19
Iteration:  4163charge 0 multiplicity 1
 O        -2.895274        -0.985434         1.579976
 C        -1.802583        -1.300228         0.807358
 C        -1.912684        -2.574671         0.052082
 C        -1.755840        -1.178351        -0.690510
 O        -0.465365        -0.701986        -1.030511
 C         0.361956        -0.507585        -0.000942
 C         1.334887         0.606534         0.004993
 C         1.783139        -0.970610         0.038653
 C        -0.387667        -0.840733         1.346076
 H        -2.726289        -1.475948         2.394866
 H        -1.103204        -3.255102         0.054799
 H        -2.832178        -3.038071        -0.224565
 H        -2.425482        -0.799952        -1.366237
 H         1.297078         1.143800        -0.969528
 H         1.365173         1.233462         0.855150
 H         2.257952        -1.370863        -0.925532
 H         2.270622        -1.169380         1.029943
 H        -0.022237        -1.697993         1.907603
 H        -0.577899         0.025822         2.056561
