19
Iteration:    14
 O        -2.922066        -1.087305         1.702561
 C        -1.799959        -1.419660         0.851181
 C        -1.416603        -2.632266         0.107034
 C        -1.746847        -1.265424        -0.670706
 O        -0.624736        -0.422057        -1.098516
 C         0.243760        -0.267527         0.067684
 C         1.537215         0.422506        -0.096629
 C         1.664394        -1.066522        -0.094758
 C        -0.623028        -0.651765         1.290744
 H        -2.989037        -1.705229         2.486564
 H        -0.397363        -3.004135         0.421868
 H        -2.326529        -3.489548         0.222331
 H        -2.493533        -1.329553        -1.422065
 H         1.684051         0.893101        -1.096768
 H         1.977489         1.047996         0.692637
 H         1.612787        -1.661258        -0.933314
 H         1.682825        -1.708890         0.920439
 H        -0.067532        -1.125794         2.228122
 H        -1.057334         0.223250         1.656139
