19
Iteration:   882charge 0 multiplicity 1
 O        -2.875642        -0.865536         1.586408
 C        -1.764539        -1.311022         0.844147
 C        -2.016028        -2.630250         0.062050
 C        -1.728633        -1.210242        -0.606035
 O        -0.482988        -0.850267        -1.072138
 C         0.409722        -0.573721         0.100779
 C         1.222646         0.667093         0.079097
 C         1.942094        -0.655778        -0.195026
 C        -0.336239        -1.021073         1.357482
 H        -3.357082        -1.655225         1.843272
 H        -1.338669        -3.488913        -0.008239
 H        -3.075869        -2.905819         0.014939
 H        -2.496994        -0.814038        -1.193633
 H         1.088925         1.363100        -0.838423
 H         1.252999         1.055046         1.162654
 H         2.134708        -0.767232        -1.284086
 H         2.465854        -1.064029         0.597933
 H         0.039641        -1.878202         2.020511
 H        -0.526599        -0.163610         2.046507
