19
Iteration:  1470charge 0 multiplicity 1
 O        -2.805598        -0.815808         1.665086
 C        -1.745361        -1.329562         0.896553
 C        -1.929724        -2.516534        -0.072908
 C        -1.766370        -1.111032        -0.659775
 O        -0.531188        -0.924621        -1.102468
 C         0.450011        -0.705568         0.095155
 C         1.177971         0.682183        -0.042170
 C         1.900726        -0.679925        -0.007738
 C        -0.441947        -1.085598         1.412077
 H        -3.397364        -1.595594         1.768197
 H        -1.098563        -3.304532        -0.275633
 H        -2.899068        -3.004833        -0.175935
 H        -2.607888        -0.629237        -1.306664
 H         1.046799         1.285226        -0.931865
 H         1.360106         1.414867         0.724187
 H         2.395214        -1.197229        -0.851341
 H         2.490472        -0.746519         0.903020
 H         0.084667        -1.785215         1.965802
 H        -0.536627        -0.233373         2.028048
