19
Iteration:  2628
 O        -2.907108        -1.241566         1.520671
 C        -1.697843        -1.311212         0.862421
 C        -1.433494        -2.511400         0.002992
 C        -1.761581        -1.185811        -0.666019
 O        -0.670196        -0.305494        -0.926894
 C         0.242570        -0.401440         0.070735
 C         1.543610         0.264222        -0.086539
 C         1.476045        -1.251206         0.029767
 C        -0.548053        -0.455729         1.336071
 H        -2.997925        -1.995338         2.148722
 H        -0.365454        -2.934809        -0.056227
 H        -2.158661        -3.342317         0.018576
 H        -2.575768        -0.915710        -1.183169
 H         1.714784         0.781484        -1.117917
 H         2.005483         0.719226         0.743161
 H         1.682467        -1.940876        -0.911434
 H         1.928869        -1.745954         0.946488
 H         0.156138        -0.767207         2.155365
 H        -0.830976         0.545177         1.464812
