19
Iteration:  4649charge 0 multiplicity 1
 O        -2.966233        -0.873629         1.572235
 C        -1.821801        -1.259790         0.858117
 C        -2.000261        -2.550793         0.107183
 C        -1.710121        -1.176552        -0.666595
 O        -0.365895        -0.818520        -1.154255
 C         0.366151        -0.644614         0.084226
 C         1.208837         0.643055         0.067025
 C         1.931059        -0.750935        -0.083778
 C        -0.403605        -1.029084         1.353384
 H        -2.789073        -1.182210         2.461692
 H        -1.162316        -3.243963         0.172403
 H        -3.018023        -2.902512         0.119248
 H        -2.558903        -0.850345        -1.325422
 H         1.101038         1.158811        -0.934793
 H         1.405564         1.162076         1.042589
 H         2.265359        -0.994410        -1.051885
 H         2.543916        -1.230208         0.640480
 H         0.149512        -1.983493         1.768196
 H        -0.279006        -0.226315         2.079022
