19
Iteration:  2819charge 0 multiplicity 1
 O        -2.900958        -1.009951         1.565729
 C        -1.692527        -1.359367         0.888278
 C        -1.825053        -2.503843        -0.030177
 C        -1.829650        -1.079218        -0.586508
 O        -0.503398        -0.732171        -1.161101
 C         0.335594        -0.534180         0.058021
 C         1.347682         0.492318        -0.005442
 C         1.789676        -0.879507        -0.012955
 C        -0.416683        -0.823388         1.431308
 H        -3.182436        -1.824240         2.016262
 H        -1.065495        -3.254033        -0.025531
 H        -2.744407        -3.025297         0.183428
 H        -2.668585        -0.601376        -1.186564
 H         1.498466         0.997175        -0.930182
 H         1.490645         1.206746         0.826091
 H         2.237550        -1.295884        -0.876103
 H         2.166045        -1.273882         0.888547
 H         0.033061        -1.531300         2.074621
 H        -0.613985         0.131264         1.939271
