19
Iteration:  2778
 O        -3.024009        -0.943612         1.633104
 C        -1.866012        -1.317987         0.920646
 C        -1.788265        -2.650819        -0.110772
 C        -1.667291        -1.213485        -0.662713
 O        -0.495028        -0.607099        -1.038273
 C         0.316486        -0.542784         0.136762
 C         1.438061         0.521688        -0.035757
 C         1.866766        -0.890740        -0.186588
 C        -0.494206        -0.836723         1.455723
 H        -3.172238        -1.563118         2.402579
 H        -0.956584        -3.334689         0.185071
 H        -2.872122        -2.988486        -0.123143
 H        -2.456319        -0.973902        -1.338642
 H         1.382145         1.100390        -0.927009
 H         1.836575         1.113430         0.860030
 H         2.047731        -1.282690        -1.200714
 H         2.626367        -1.377105         0.535276
 H         0.181685        -1.410372         2.130098
 H        -0.795899         0.110898         2.050917
