19
Iteration:  2570
 O        -2.991938        -1.201003         1.525783
 C        -1.740750        -1.241072         0.879850
 C        -1.472409        -2.562868         0.011792
 C        -1.775198        -1.163257        -0.621068
 O        -0.607156        -0.453772        -1.042149
 C         0.305946        -0.480333         0.102185
 C         1.514091         0.418343         0.040128
 C         1.639548        -1.233926        -0.196809
 C        -0.568911        -0.526379         1.456576
 H        -2.867008        -1.643904         2.369892
 H        -0.566952        -3.100467        -0.174632
 H        -2.418701        -3.113151         0.105331
 H        -2.816548        -0.958705        -1.265859
 H         1.630417         0.960774        -0.834740
 H         1.938765         0.965184         0.949546
 H         1.738094        -1.374932        -1.220116
 H         2.100348        -1.912924         0.497228
 H        -0.096118        -1.039065         2.285129
 H        -0.703406         0.578966         1.776555
