19
Iteration:  4219
 O        -2.926187        -0.966751         1.544354
 C        -1.720403        -1.327707         0.869167
 C        -1.797216        -2.567536        -0.057878
 C        -1.730346        -1.227256        -0.617004
 O        -0.532506        -0.693636        -1.021360
 C         0.312433        -0.562312         0.098661
 C         1.389838         0.510948         0.008706
 C         1.791694        -0.894397        -0.051407
 C        -0.466911        -0.749725         1.357762
 H        -3.090154        -1.704741         2.200787
 H        -1.115849        -3.422979        -0.151975
 H        -2.856721        -2.776133        -0.000831
 H        -2.519289        -0.694681        -1.227201
 H         1.405227         1.061530        -0.845586
 H         1.642068         1.136772         0.908828
 H         2.125216        -1.387193        -0.978964
 H         2.481212        -1.388856         0.751128
 H        -0.074656        -1.272061         2.235281
 H        -0.818410         0.238728         1.742453
