19
Iteration:  1767charge 0 multiplicity 1
 O        -3.007832        -1.263352         1.540462
 C        -1.741280        -1.331527         0.867258
 C        -1.472365        -2.593033         0.083290
 C        -1.653190        -1.235099        -0.620900
 O        -0.658964        -0.253809        -0.986695
 C         0.261884        -0.399541         0.077314
 C         1.581898         0.281988        -0.085211
 C         1.528170        -1.245698        -0.050833
 C        -0.510987        -0.391241         1.337314
 H        -2.910291        -1.657165         2.432143
 H        -0.460555        -3.180956         0.071834
 H        -2.301530        -3.335369        -0.165894
 H        -2.553105        -1.073550        -1.296243
 H         1.739743         0.739515        -1.118486
 H         1.908291         0.871654         0.756738
 H         1.666270        -1.609555        -1.122696
 H         1.711263        -1.854364         0.822300
 H         0.043405        -0.872490         2.161423
 H        -0.923999         0.635117         1.601621
