19
Iteration:   276
 O        -2.815344        -0.928391         1.791228
 C        -1.864455        -1.304688         0.829243
 C        -1.924953        -2.609629         0.081632
 C        -1.764895        -1.236319        -0.722555
 O        -0.431564        -0.902590        -1.117810
 C         0.354625        -0.514699         0.040133
 C         1.317128         0.669287         0.041666
 C         1.862445        -0.729612        -0.115327
 C        -0.475972        -0.834964         1.298104
 H        -3.183980        -1.791555         2.093064
 H        -1.034698        -3.413007        -0.007768
 H        -2.896172        -3.106764        -0.204953
 H        -2.555296        -1.157376        -1.435371
 H         1.397565         1.282069        -0.834853
 H         1.527738         1.203221         0.954785
 H         2.170977        -0.964119        -1.107529
 H         2.435698        -1.246079         0.731276
 H        -0.127307        -1.519267         2.171494
 H        -0.638728         0.144424         1.734334
