19
Iteration:  4852charge 0 multiplicity 1
 O        -2.822034        -0.829869         1.568244
 C        -1.720245        -1.345635         0.877077
 C        -2.066799        -2.481353        -0.012172
 C        -1.719887        -1.176221        -0.670210
 O        -0.376101        -0.968132        -1.060677
 C         0.394529        -0.629015         0.106815
 C         1.105794         0.615908         0.061728
 C         1.859085        -0.732511        -0.074565
 C        -0.331404        -0.929472         1.353586
 H        -3.416148        -1.510772         1.873946
 H        -1.482150        -3.398235        -0.027175
 H        -3.127057        -2.687035         0.085513
 H        -2.394410        -0.736432        -1.415863
 H         0.978104         1.212524        -0.760325
 H         1.346854         1.330432         0.914436
 H         2.038603        -0.943590        -1.072261
 H         2.434180        -1.139898         0.759534
 H         0.205648        -1.710247         1.969550
 H        -0.466350        -0.106484         2.143274
