19
Iteration:  1842charge 0 multiplicity 1
 O        -2.969453        -1.171563         1.654559
 C        -1.763900        -1.338769         0.879465
 C        -1.675545        -2.583590        -0.012854
 C        -1.740301        -1.177003        -0.628642
 O        -0.532061        -0.519716        -1.121867
 C         0.311910        -0.424773         0.111310
 C         1.545426         0.434994         0.008177
 C         1.658241        -1.095218        -0.084341
 C        -0.564681        -0.520319         1.354289
 H        -3.049427        -1.924163         2.261818
 H        -0.710804        -3.263859        -0.078590
 H        -2.570031        -3.282812        -0.153818
 H        -2.703411        -0.789029        -1.107048
 H         1.665303         0.888831        -0.998325
 H         1.989526         0.963106         0.891122
 H         1.937614        -1.611318        -1.061456
 H         2.154242        -1.547727         0.786996
 H         0.089883        -1.033315         2.115627
 H        -0.849925         0.530840         1.592479
