19
Iteration:  2062charge 0 multiplicity 1
 O        -3.070066        -0.948383         1.524414
 C        -1.816026        -1.314041         0.902606
 C        -1.568706        -2.599454        -0.053087
 C        -1.765723        -1.219915        -0.566556
 O        -0.529875        -0.618056        -1.007188
 C         0.316401        -0.497388         0.159925
 C         1.480403         0.501879        -0.033754
 C         1.699215        -0.942529        -0.207475
 C        -0.459185        -0.808109         1.425185
 H        -3.179084        -1.534667         2.314302
 H        -0.557849        -2.903391         0.038784
 H        -2.305466        -3.320232        -0.220141
 H        -2.675057        -0.812849        -1.130734
 H         1.477374         1.308190        -0.754239
 H         1.910246         0.686270         0.911285
 H         1.727831        -1.473579        -1.185097
 H         2.334719        -1.506377         0.397533
 H         0.075594        -1.508699         2.062419
 H        -0.666056         0.098139         2.066883
