19
Iteration:  4244charge 0 multiplicity 1
 O        -3.014804        -0.978493         1.448729
 C        -1.836873        -1.366849         0.852935
 C        -1.796764        -2.660262         0.088701
 C        -1.678747        -1.174282        -0.571740
 O        -0.495628        -0.567383        -1.005967
 C         0.327233        -0.434396         0.124720
 C         1.467371         0.550230        -0.057271
 C         1.769654        -0.968043        -0.124388
 C        -0.443999        -0.802676         1.428672
 H        -3.313601        -1.791950         1.922723
 H        -0.813302        -3.126565         0.314799
 H        -2.706268        -3.331609         0.030746
 H        -2.542475        -0.916248        -1.323904
 H         1.549577         1.191432        -1.041682
 H         2.023357         1.019391         0.724419
 H         1.782179        -1.543259        -1.080389
 H         2.330194        -1.670985         0.569819
 H         0.076440        -1.483725         2.189437
 H        -0.729185         0.082520         2.009245
