19
Iteration:  3724charge 0 multiplicity 1
 O        -2.828335        -0.812882         1.614175
 C        -1.817727        -1.275349         0.783395
 C        -1.871989        -2.531256        -0.015108
 C        -1.763324        -1.202054        -0.661510
 O        -0.473464        -0.888456        -1.067156
 C         0.374734        -0.616901         0.104839
 C         1.206154         0.647278         0.065860
 C         1.812130        -0.762675        -0.014067
 C        -0.356930        -1.035529         1.324974
 H        -3.072764        -1.631310         2.136342
 H        -0.896771        -3.034659        -0.106064
 H        -2.871797        -2.904328        -0.123051
 H        -2.581388        -0.803277        -1.311145
 H         1.097386         1.245352        -0.848035
 H         1.051830         1.337812         0.970254
 H         2.148815        -1.046778        -0.951949
 H         2.516387        -0.997334         0.840711
 H        -0.027368        -1.980066         1.761689
 H        -0.340056        -0.239497         2.117638
