19
Iteration:   668charge 0 multiplicity 1
 O        -2.928254        -0.924515         1.561762
 C        -1.753620        -1.411429         0.883687
 C        -1.639137        -2.651638         0.034941
 C        -1.771045        -1.259562        -0.582469
 O        -0.620333        -0.545240        -1.125443
 C         0.337167        -0.500576         0.051239
 C         1.449668         0.597464         0.081334
 C         1.692177        -0.963707        -0.145260
 C        -0.492392        -0.836053         1.353495
 H        -2.732330        -1.085532         2.492031
 H        -0.670904        -3.214451         0.278296
 H        -2.408028        -3.414125        -0.002735
 H        -2.701143        -1.076816        -1.134323
 H         1.485183         1.064819        -0.849233
 H         1.717833         1.043625         0.946800
 H         1.998362        -1.141880        -1.129663
 H         2.088244        -1.541275         0.721942
 H         0.101295        -1.472781         1.933386
 H        -0.794034         0.075600         1.931506
