19
Iteration:   108
 O        -2.953360        -1.256307         1.646950
 C        -1.807546        -1.300255         0.851795
 C        -1.517220        -2.612406         0.089889
 C        -1.629123        -1.226444        -0.634213
 O        -0.593880        -0.380073        -1.057030
 C         0.268204        -0.403860         0.137257
 C         1.490514         0.383526        -0.279745
 C         1.628361        -1.102488         0.001827
 C        -0.611374        -0.512806         1.379546
 H        -2.780628        -2.001484         2.250357
 H        -0.594450        -3.043254         0.323803
 H        -2.302247        -3.212721        -0.141640
 H        -2.536983        -1.070116        -1.202867
 H         1.525602         0.677448        -1.338331
 H         2.025852         1.061873         0.374774
 H         1.775940        -1.775154        -0.766561
 H         2.152100        -1.390557         0.943821
 H        -0.196918        -0.913471         2.254017
 H        -0.993228         0.561358         1.608837
