19
Iteration:  1034charge 0 multiplicity 1
 O        -2.834424        -0.761062         1.529678
 C        -1.748772        -1.366532         0.832531
 C        -2.055813        -2.689632         0.075007
 C        -1.691988        -1.248220        -0.613439
 O        -0.493073        -0.753266        -1.035038
 C         0.403115        -0.635891         0.088938
 C         1.140533         0.667398         0.037452
 C         1.883843        -0.645304        -0.091818
 C        -0.329884        -1.075662         1.332821
 H        -3.076758        -1.540683         2.073331
 H        -1.301001        -3.453067         0.093139
 H        -3.079574        -3.102635         0.062423
 H        -2.483652        -0.638621        -1.114594
 H         1.135828         1.192731        -0.976071
 H         1.274410         1.372844         0.936787
 H         2.308197        -0.811152        -1.021413
 H         2.450769        -1.057355         0.713312
 H         0.186309        -2.023331         1.551053
 H        -0.196692        -0.371256         2.128700
