19
Iteration:  1318
 O        -2.657396        -0.689721         1.698044
 C        -1.768214        -1.386543         0.829223
 C        -2.206544        -2.472186        -0.021511
 C        -1.681623        -1.198098        -0.617180
 O        -0.299986        -1.147991        -1.105880
 C         0.421398        -0.732508         0.065137
 C         0.945217         0.740390         0.060243
 C         1.877269        -0.418431         0.003709
 C        -0.312671        -1.209086         1.247995
 H        -3.480392        -1.246523         1.830456
 H        -1.568261        -3.328257        -0.139802
 H        -3.310955        -2.721422        -0.032268
 H        -2.390594        -0.496728        -1.206675
 H         0.815175         1.279433        -0.848312
 H         0.899694         1.236764         1.008828
 H         2.131325        -0.541701        -1.015738
 H         2.455052        -0.593915         0.880314
 H         0.105596        -2.291726         1.633447
 H        -0.426699        -0.377191         1.906986
