19
Iteration:  3663charge 0 multiplicity 1
 O        -2.819263        -0.843080         1.568434
 C        -1.757713        -1.462369         0.803887
 C        -2.150090        -2.525144        -0.042478
 C        -1.724821        -1.124017        -0.684614
 O        -0.381506        -0.936668        -1.053803
 C         0.458581        -0.613286         0.177906
 C         1.174286         0.734461        -0.001218
 C         1.959762        -0.650689        -0.103678
 C        -0.427125        -1.057572         1.444979
 H        -3.358168        -1.503973         2.093208
 H        -1.541354        -3.419554        -0.265879
 H        -3.166861        -2.866509         0.171314
 H        -2.483934        -0.564937        -1.005909
 H         0.723945         1.179786        -0.899561
 H         1.363926         1.356534         0.854095
 H         2.416699        -1.057780        -1.001390
 H         2.550268        -0.824618         0.871371
 H         0.042536        -1.865315         2.030879
 H        -0.528685        -0.171002         2.076084
