19
Iteration:  2129charge 0 multiplicity 1
 O        -3.017969        -1.306396         1.644374
 C        -1.785948        -1.248222         0.884685
 C        -1.545158        -2.509884        -0.038535
 C        -1.781407        -1.223713        -0.683802
 O        -0.635202        -0.483457        -1.067584
 C         0.272680        -0.364511         0.056060
 C         1.693112         0.343527        -0.013583
 C         1.615600        -1.114557        -0.020768
 C        -0.523996        -0.452055         1.370587
 H        -2.938709        -1.905962         2.402066
 H        -0.559101        -2.956321        -0.256830
 H        -2.347669        -3.254104         0.043133
 H        -2.751359        -0.775820        -1.215866
 H         2.012342         0.646452        -0.991749
 H         1.947938         0.924874         0.975933
 H         1.623883        -1.540779        -1.051198
 H         1.991950        -1.942890         0.731180
 H         0.058373        -0.958040         2.088416
 H        -0.747621         0.646035         1.690784
