19
Iteration:   130
 O        -2.858193        -1.019744         1.685599
 C        -1.783421        -1.370689         0.862373
 C        -1.443637        -2.607060         0.050771
 C        -1.772829        -1.272454        -0.692458
 O        -0.617120        -0.525819        -1.057876
 C         0.222794        -0.392875         0.064897
 C         1.460453         0.465339        -0.111586
 C         1.583028        -1.059876         0.015722
 C        -0.529770        -0.643687         1.303708
 H        -3.203491        -1.802125         2.156051
 H        -0.456854        -2.945173         0.008935
 H        -2.221404        -3.296955        -0.029785
 H        -2.542114        -1.187719        -1.463419
 H         1.516742         0.890847        -1.127968
 H         1.743918         1.125651         0.713295
 H         1.926485        -1.606484        -0.769680
 H         2.019752        -1.444648         0.987002
 H        -0.046341        -1.318648         1.948413
 H        -0.788143         0.307450         1.914013
