19
Iteration:  1916
 O        -2.983566        -0.927131         1.487217
 C        -1.771090        -1.297033         0.849121
 C        -1.720066        -2.616168        -0.070706
 C        -1.745957        -1.191711        -0.559807
 O        -0.527479        -0.698110        -0.947772
 C         0.327963        -0.480231         0.202501
 C         1.431912         0.573553        -0.039971
 C         1.706474        -0.914252        -0.214228
 C        -0.453477        -0.863828         1.454378
 H        -3.042237        -1.514974         2.247911
 H        -0.666988        -3.109926        -0.070635
 H        -2.613658        -3.314869        -0.096211
 H        -2.654150        -0.800880        -1.119483
 H         1.213405         1.200290        -0.923693
 H         2.049007         0.825709         0.869385
 H         1.864003        -1.330677        -1.273472
 H         2.396278        -1.373270         0.546701
 H         0.104154        -1.701090         2.005523
 H        -0.600495         0.014771         2.028495
