19
Iteration:   420charge 0 multiplicity 1
 O        -2.953022        -1.020940         1.642477
 C        -1.729123        -1.340341         0.911127
 C        -1.759279        -2.697220         0.113771
 C        -1.809237        -1.152191        -0.549473
 O        -0.526113        -0.817493        -1.118055
 C         0.340028        -0.539426         0.060136
 C         1.357424         0.533352         0.026117
 C         1.848608        -0.837892        -0.178744
 C        -0.449144        -0.581189         1.295641
 H        -3.486108        -1.773001         1.334296
 H        -0.742910        -3.121456         0.002593
 H        -2.690067        -3.380528         0.199091
 H        -2.690882        -0.656439        -1.037169
 H         1.363230         1.253219        -0.732816
 H         1.616821         0.951177         0.994227
 H         2.003980        -1.164771        -1.254584
 H         2.457041        -1.244978         0.503968
 H         0.146046        -1.055424         2.181220
 H        -0.714585         0.388882         1.579518
