19
Iteration:  4010charge 0 multiplicity 1
 O        -3.013038        -1.272527         1.595821
 C        -1.840845        -1.200578         0.917000
 C        -1.592874        -2.508021         0.017133
 C        -1.710135        -1.135498        -0.676107
 O        -0.546607        -0.502798        -1.096274
 C         0.353869        -0.482879         0.123486
 C         1.546229         0.400790        -0.115068
 C         1.696468        -1.146656        -0.031793
 C        -0.621699        -0.535240         1.393524
 H        -2.795221        -2.010356         2.164971
 H        -0.641473        -3.046578         0.171205
 H        -2.523086        -3.068407         0.035148
 H        -2.615415        -0.686221        -1.222947
 H         1.739977         0.798016        -1.108373
 H         2.039480         0.932060         0.656315
 H         1.943558        -1.783881        -0.853076
 H         2.047038        -1.607591         0.933531
 H        -0.112124        -0.917688         2.272694
 H        -0.920390         0.504269         1.716287
