19
Iteration:  3164charge 0 multiplicity 1
 O        -2.994566        -1.024263         1.631010
 C        -1.722362        -1.278167         0.908758
 C        -1.891099        -2.475568        -0.019078
 C        -1.797874        -1.204003        -0.623293
 O        -0.474747        -0.798795        -1.116338
 C         0.360307        -0.500112         0.062457
 C         1.346547         0.611073        -0.014733
 C         1.841053        -0.887360        -0.029498
 C        -0.397860        -0.813775         1.381542
 H        -3.193724        -1.938812         1.897296
 H        -1.105258        -3.162458        -0.220517
 H        -2.760283        -3.082901         0.008227
 H        -2.490206        -0.580259        -1.113063
 H         1.538903         0.928101        -1.067973
 H         1.365139         1.204788         0.843272
 H         2.323013        -1.192093        -0.951666
 H         2.278012        -1.384235         0.848319
 H         0.207114        -1.665240         1.795334
 H        -0.334357         0.027424         2.033883
