19
Iteration:  3330charge 0 multiplicity 1
 O        -2.883800        -0.814908         1.585051
 C        -1.791716        -1.381448         0.880447
 C        -2.121744        -2.537165        -0.113124
 C        -1.707042        -1.070695        -0.580805
 O        -0.384429        -1.097741        -1.050108
 C         0.378823        -0.528329         0.080793
 C         1.133425         0.763317        -0.063967
 C         1.855190        -0.654993         0.057665
 C        -0.271294        -1.099031         1.395300
 H        -2.894995        -1.394335         2.335366
 H        -1.320454        -3.202119        -0.436991
 H        -3.090983        -2.892043        -0.478861
 H        -2.378552        -0.446666        -1.084274
 H         1.233178         1.260711        -1.034855
 H         1.366366         1.348088         0.786635
 H         2.288248        -1.119246        -0.895024
 H         2.455266        -0.915503         0.859041
 H         0.213609        -2.100544         1.567290
 H        -0.100435        -0.433421         2.250335
