19
Iteration:  3709charge 0 multiplicity 1
 O        -2.846612        -0.846655         1.689134
 C        -1.790000        -1.277738         0.876750
 C        -1.932146        -2.519801        -0.002967
 C        -1.759876        -1.098205        -0.690779
 O        -0.353734        -0.992435        -1.175994
 C         0.276670        -0.546077         0.055525
 C         1.182914         0.643293         0.039009
 C         1.876694        -0.684482         0.025557
 C        -0.443767        -1.059048         1.316332
 H        -3.249382        -1.583655         2.128825
 H        -1.015257        -3.103630        -0.016895
 H        -2.675614        -3.368634        -0.065405
 H        -2.589362        -0.445514        -1.247009
 H         1.370927         1.309571        -0.786297
 H         1.454880         1.086930         0.955456
 H         2.222458        -1.083717        -1.031670
 H         2.321177        -1.090302         0.895736
 H         0.098541        -1.992501         1.661197
 H        -0.468304        -0.389501         2.160286
