19
Iteration:  4046
 O        -2.894736        -0.966158         1.618187
 C        -1.732297        -1.388523         0.821468
 C        -1.718877        -2.631222        -0.151550
 C        -1.762135        -1.193871        -0.593287
 O        -0.587664        -0.634221        -1.098462
 C         0.262487        -0.431011         0.044436
 C         1.488509         0.479171         0.022082
 C         1.781373        -1.030721         0.045676
 C        -0.574046        -0.658933         1.381354
 H        -2.952401        -1.572730         2.347157
 H        -0.778797        -3.115630        -0.212089
 H        -2.550404        -3.314030        -0.117461
 H        -2.649533        -0.771752        -0.827526
 H         1.816393         0.926462        -0.902545
 H         1.780001         1.077760         0.836152
 H         2.066698        -1.630802        -0.873957
 H         2.053640        -1.436729         1.000788
 H         0.004987        -1.209591         2.164634
 H        -0.829589         0.327291         1.721387
