19
Iteration:  2090
 O        -2.890768        -1.012515         1.547223
 C        -1.745881        -1.358141         0.836786
 C        -1.561996        -2.630873         0.048660
 C        -1.719862        -1.226784        -0.657398
 O        -0.587025        -0.344429        -0.999790
 C         0.283405        -0.530832         0.108002
 C         1.382087         0.381367         0.013329
 C         1.631651        -1.077099        -0.084267
 C        -0.517143        -0.717075         1.319193
 H        -2.867519        -1.585423         2.331255
 H        -0.562498        -3.099184         0.083779
 H        -2.494105        -3.251212        -0.121798
 H        -2.574470        -0.971767        -1.139323
 H         1.434414         0.988573        -0.946400
 H         1.670590         1.006757         0.869934
 H         1.921910        -1.315862        -1.092844
 H         2.155119        -1.784878         0.580774
 H         0.002273        -1.145725         2.230824
 H        -0.884213         0.201210         1.732183
