19
Iteration:  4172
 O        -2.884424        -1.021802         1.633120
 C        -1.817610        -1.260601         0.832449
 C        -1.859986        -2.511428        -0.006605
 C        -1.782105        -1.159129        -0.704788
 O        -0.481502        -0.761934        -1.108171
 C         0.351183        -0.546519         0.098033
 C         1.336234         0.582842        -0.022259
 C         1.786774        -0.889800         0.040636
 C        -0.431309        -0.830035         1.327323
 H        -2.724312        -1.352097         2.524730
 H        -1.025380        -3.165526         0.055691
 H        -2.851228        -2.940091        -0.135813
 H        -2.456071        -1.054376        -1.482827
 H         1.757157         1.232511        -0.876888
 H         1.411702         1.116310         0.884655
 H         2.380884        -1.415270        -0.698143
 H         2.072235        -1.351091         0.926185
 H         0.001511        -1.694236         1.807291
 H        -0.525927        -0.050515         2.112974
