19
Iteration:  3771charge 0 multiplicity 1
 O        -2.953211        -0.859071         1.436927
 C        -1.801687        -1.391633         0.840396
 C        -1.897387        -2.675351        -0.008256
 C        -1.822590        -1.228585        -0.609626
 O        -0.528669        -0.806321        -0.955669
 C         0.406987        -0.499135         0.150779
 C         1.438412         0.714209         0.097825
 C         1.869493        -0.761651        -0.175601
 C        -0.415313        -0.985545         1.369236
 H        -3.037142        -1.098200         2.356169
 H        -1.039627        -3.331332         0.028479
 H        -2.958933        -2.970796         0.051585
 H        -2.596700        -0.822668        -1.139799
 H         1.317504         1.447227        -0.717319
 H         1.918987         1.144331         0.941872
 H         1.964006        -1.018355        -1.289842
 H         2.407080        -1.434319         0.439155
 H         0.026841        -1.820566         1.907633
 H        -0.441312        -0.109844         2.042272
