19
Iteration:   704
 O        -2.896330        -0.979902         1.573087
 C        -1.792582        -1.363888         0.846859
 C        -1.835903        -2.666467         0.087225
 C        -1.685876        -1.220432        -0.633805
 O        -0.582344        -0.604595        -1.044584
 C         0.365253        -0.489305         0.117416
 C         1.387322         0.627006        -0.032563
 C         1.794005        -0.880764        -0.115904
 C        -0.421568        -0.873267         1.367047
 H        -3.490765        -1.691723         1.784811
 H        -0.976371        -3.297954         0.177606
 H        -2.812719        -3.118111         0.132916
 H        -2.642085        -0.947889        -1.088488
 H         1.318599         1.120860        -1.058609
 H         1.674216         1.393346         0.733134
 H         2.144656        -1.260147        -1.114599
 H         2.308338        -1.371015         0.630335
 H         0.081937        -1.684261         2.000237
 H        -0.486074         0.028096         2.012286
