19
Iteration:  4744charge 0 multiplicity 1
 O        -2.957273        -0.805915         1.672378
 C        -1.913732        -1.327143         0.924326
 C        -1.897229        -2.500075        -0.032037
 C        -1.755082        -1.134172        -0.629598
 O        -0.384853        -1.021267        -1.070068
 C         0.422066        -0.582978         0.022598
 C         1.283729         0.676351         0.033389
 C         1.978697        -0.665596        -0.132417
 C        -0.484297        -1.075523         1.366771
 H        -3.645243        -1.436520         1.865224
 H        -1.008778        -3.132339         0.133599
 H        -2.888367        -2.968122        -0.135295
 H        -2.525615        -0.660148        -1.390698
 H         1.362350         1.149339        -0.974116
 H         1.466542         0.986242         1.087251
 H         2.310162        -0.831233        -1.137423
 H         2.707562        -0.983177         0.640187
 H        -0.190006        -1.950269         1.837585
 H        -0.533177        -0.224460         2.103660
