19
Iteration:  2973charge 0 multiplicity 1
 O        -2.933672        -1.233166         1.582928
 C        -1.708977        -1.302400         0.868654
 C        -1.476610        -2.533378        -0.083142
 C        -1.858638        -1.164234        -0.626909
 O        -0.640946        -0.409890        -1.006900
 C         0.271416        -0.392184         0.087190
 C         1.591784         0.284242        -0.043005
 C         1.616471        -1.227104         0.028903
 C        -0.589013        -0.444215         1.309101
 H        -2.959852        -1.834785         2.378423
 H        -0.491669        -2.927345        -0.462940
 H        -2.374617        -3.241358         0.033483
 H        -2.720456        -0.852045        -1.125046
 H         1.845120         0.932167        -0.981796
 H         1.879516         0.692632         0.891117
 H         1.999791        -1.884606        -0.829119
 H         1.806205        -1.615295         1.040142
 H         0.039070        -0.831663         2.064673
 H        -0.806815         0.616274         1.584091
