19
Iteration:    73
 O        -3.005391        -1.418390         1.467202
 C        -1.734949        -1.263643         0.973331
 C        -1.412450        -2.553158         0.110376
 C        -1.781450        -1.156592        -0.449274
 O        -0.653033        -0.522756        -1.059532
 C         0.311913        -0.374465         0.070544
 C         1.632268         0.321577        -0.188139
 C         1.540759        -1.141261        -0.097199
 C        -0.621727        -0.288659         1.375033
 H        -2.921662        -1.814079         2.361382
 H        -0.340908        -2.711510        -0.005446
 H        -2.031731        -3.401995        -0.013335
 H        -2.743398        -0.779368        -0.845551
 H         1.871330         0.789716        -1.110477
 H         2.079821         0.731598         0.712664
 H         1.599877        -1.676849        -1.154460
 H         2.121132        -1.504878         0.659586
 H        -0.157968        -0.502320         2.313677
 H        -0.977705         0.805622         1.322109
