19
Iteration:  1252charge 0 multiplicity 1
 O        -2.734739        -0.638476         1.627015
 C        -1.780887        -1.342738         0.921146
 C        -2.294395        -2.541010        -0.071749
 C        -1.660765        -1.271410        -0.690354
 O        -0.316945        -1.086999        -1.024356
 C         0.509786        -0.684582         0.155806
 C         0.948126         0.772237         0.022028
 C         1.973244        -0.365380        -0.129417
 C        -0.309126        -1.348753         1.386104
 H        -3.432489        -1.174662         1.985970
 H        -1.819425        -3.485909        -0.249197
 H        -3.386256        -2.729704        -0.063389
 H        -2.476275        -0.765541        -1.353461
 H         0.572573         1.322426        -0.869467
 H         1.025873         1.319957         0.962624
 H         2.318796        -0.567538        -1.171969
 H         2.663676        -0.507503         0.602126
 H         0.206433        -2.320639         1.499457
 H        -0.270579        -0.700501         2.198789
