19
Iteration:  4851charge 0 multiplicity 1
 O        -2.822323        -0.833574         1.562214
 C        -1.725146        -1.333638         0.878947
 C        -2.064777        -2.481135        -0.005943
 C        -1.713874        -1.174526        -0.669957
 O        -0.375489        -0.963840        -1.058996
 C         0.404299        -0.628123         0.103445
 C         1.103150         0.613822         0.066170
 C         1.839941        -0.729195        -0.071658
 C        -0.328874        -0.937491         1.341194
 H        -3.398100        -1.509142         1.903917
 H        -1.447011        -3.396423         0.029472
 H        -3.139796        -2.703357         0.106225
 H        -2.414317        -0.720086        -1.443871
 H         0.985455         1.212030        -0.763889
 H         1.361488         1.327001         0.883995
 H         2.045341        -0.959321        -1.085102
 H         2.458794        -1.162180         0.782652
 H         0.210501        -1.732898         1.982163
 H        -0.474494        -0.150161         2.144841
