19
Iteration:   165
 O        -2.897685        -1.029533         1.562805
 C        -1.783334        -1.402953         0.917225
 C        -1.647786        -2.585305         0.211590
 C        -1.746941        -1.210275        -0.546583
 O        -0.605212        -0.663896        -1.080356
 C         0.319551        -0.498604        -0.018310
 C         1.419071         0.521996         0.086504
 C         1.773017        -0.914306        -0.205006
 C        -0.509641        -0.678468         1.245369
 H        -3.530475        -1.733367         1.776882
 H        -0.803927        -3.301837         0.097488
 H        -2.658511        -3.161350         0.071067
 H        -2.609189        -1.096633        -1.214738
 H         1.477661         1.414392        -0.585287
 H         1.635450         0.819826         1.145659
 H         2.133495        -1.098723        -1.258457
 H         2.319805        -1.346175         0.641693
 H         0.071505        -1.167781         2.100799
 H        -0.689907         0.389876         1.515944
