19
Iteration:  2597charge 0 multiplicity 1
 O        -2.999747        -1.209880         1.652864
 C        -1.812273        -1.341492         0.831177
 C        -1.423764        -2.568022         0.022185
 C        -1.676184        -1.160303        -0.676358
 O        -0.627764        -0.345313        -1.035271
 C         0.200699        -0.329128         0.055865
 C         1.660749         0.280879        -0.017645
 C         1.510767        -1.200441        -0.074068
 C        -0.629249        -0.545979         1.354281
 H        -2.762513        -1.645103         2.480507
 H        -0.447684        -3.079478         0.391735
 H        -2.156946        -3.311341        -0.292825
 H        -2.466996        -1.032300        -1.214612
 H         1.889363         0.918323        -0.966396
 H         2.271519         0.643658         0.777283
 H         1.699895        -1.522238        -1.185038
 H         1.978342        -1.745939         0.798538
 H         0.098260        -0.986674         2.101793
 H        -0.860420         0.435793         1.582714
