19
Iteration:  3575
 O        -2.706776        -0.591638         1.611319
 C        -1.751269        -1.389833         0.845135
 C        -2.132303        -2.611958        -0.028192
 C        -1.735154        -1.313852        -0.672528
 O        -0.387621        -0.995035        -1.078803
 C         0.370850        -0.658199         0.111673
 C         1.012415         0.757335         0.193292
 C         1.851384        -0.516853        -0.010642
 C        -0.283678        -1.205941         1.189444
 H        -3.344356        -1.266963         1.943661
 H        -1.388458        -3.405606        -0.240728
 H        -3.232520        -2.770693        -0.093788
 H        -2.406444        -0.769978        -1.253155
 H         1.147468         1.256965        -0.769831
 H         1.049600         1.241006         1.207223
 H         2.373463        -0.683103        -0.984235
 H         2.500468        -1.033977         0.759257
 H         0.134173        -2.071457         1.697094
 H        -0.112729        -0.430297         1.976867
