19
Iteration:  2787charge 0 multiplicity 1
 O        -2.999758        -0.930158         1.625798
 C        -1.785995        -1.317886         0.893761
 C        -1.785925        -2.658014        -0.149795
 C        -1.732199        -1.159805        -0.609426
 O        -0.460154        -0.699047        -0.999393
 C         0.350560        -0.470906         0.123898
 C         1.411623         0.525448        -0.004861
 C         1.805524        -0.911468        -0.169870
 C        -0.466249        -0.794455         1.416271
 H        -3.175058        -1.720410         2.207727
 H        -0.934696        -3.326789         0.095693
 H        -2.771130        -3.128972        -0.194729
 H        -2.697668        -0.955548        -1.258892
 H         1.281153         0.997669        -0.999318
 H         1.745637         1.124888         0.846854
 H         1.860224        -1.300570        -1.171016
 H         2.265901        -1.296578         0.692973
 H        -0.020354        -1.572616         1.986037
 H        -0.573482         0.106124         2.074365
