19
Iteration:  3864
 O        -2.905204        -1.154036         1.606995
 C        -1.794909        -1.375058         0.896738
 C        -1.779705        -2.559261        -0.026606
 C        -1.733569        -1.133882        -0.669150
 O        -0.470124        -0.629190        -1.070743
 C         0.280580        -0.414713         0.066279
 C         1.584181         0.482361        -0.097933
 C         1.619087        -0.994597         0.026475
 C        -0.494812        -0.620898         1.402220
 H        -3.305955        -1.971738         2.048489
 H        -0.837966        -3.112324        -0.077867
 H        -2.680954        -3.127341        -0.056477
 H        -2.621957        -0.612366        -1.019203
 H         1.609060         1.026137        -1.152200
 H         1.717172         1.120573         0.751822
 H         1.854651        -1.655182        -0.780098
 H         2.184388        -1.516686         0.832640
 H         0.089406        -1.098074         2.198763
 H        -0.981915         0.280951         1.796527
