19
Iteration:  4631charge 0 multiplicity 1
 O        -2.920302        -0.782407         1.502671
 C        -1.783811        -1.282673         0.808363
 C        -1.869120        -2.588916         0.137518
 C        -1.649904        -1.179647        -0.663988
 O        -0.409254        -0.783189        -1.089760
 C         0.316258        -0.635743         0.141939
 C         1.177448         0.618562         0.091090
 C         1.782885        -0.793923        -0.195840
 C        -0.345040        -1.067636         1.389281
 H        -3.030230        -1.146725         2.376910
 H        -1.110157        -3.348242         0.278995
 H        -2.926229        -2.858651        -0.006036
 H        -2.395907        -0.844461        -1.253488
 H         0.961370         1.331202        -0.590022
 H         1.469865         0.984195         1.053829
 H         2.039104        -1.216739        -1.170445
 H         2.511704        -1.072723         0.638682
 H        -0.125845        -1.985480         1.793059
 H        -0.473017        -0.222156         2.063937
