19
Iteration:  1194
 O        -2.776505        -0.630716         1.612609
 C        -1.731780        -1.231734         0.861051
 C        -2.055020        -2.601219        -0.047483
 C        -1.737153        -1.240652        -0.659470
 O        -0.440503        -1.027186        -1.161294
 C         0.465549        -0.715127         0.105401
 C         0.913622         0.659784         0.138283
 C         1.885148        -0.539733        -0.059321
 C        -0.250762        -1.192133         1.299024
 H        -2.656332        -1.080635         2.501862
 H        -1.210010        -3.264120         0.012444
 H        -2.958176        -2.959996        -0.424006
 H        -2.562288        -0.716520        -1.165326
 H         0.432270         1.233463        -0.688089
 H         0.966955         1.182325         1.178969
 H         2.362076        -0.663191        -0.993494
 H         2.374747        -0.854588         0.971057
 H         0.216803        -2.122461         1.849140
 H        -0.174236        -0.492983         2.177867
