19
Iteration:  3403
 O        -2.706800        -0.625887         1.557561
 C        -1.798691        -1.334327         0.836003
 C        -2.054578        -2.607026         0.021777
 C        -1.759305        -1.188185        -0.614575
 O        -0.348085        -1.123360        -1.074455
 C         0.391116        -0.607626         0.086167
 C         1.061618         0.756586         0.200626
 C         1.814225        -0.507296        -0.128905
 C        -0.369569        -1.226295         1.322475
 H        -3.490001        -1.124148         1.808736
 H        -1.216456        -3.306930        -0.179685
 H        -3.007942        -2.963660        -0.412192
 H        -2.517627        -0.653881        -1.118983
 H         1.255253         1.515722        -0.594520
 H         1.214337         1.047026         1.253601
 H         2.389142        -0.664496        -1.129991
 H         2.443077        -1.028900         0.558547
 H         0.036246        -2.209053         1.486757
 H        -0.447369        -0.647887         2.217749
