19
Iteration:  4109
 O        -3.066068        -0.869762         1.485154
 C        -1.816023        -1.317483         0.890239
 C        -1.723774        -2.595951         0.036419
 C        -1.721445        -1.193454        -0.598472
 O        -0.446702        -0.704898        -0.990951
 C         0.392620        -0.564222         0.168536
 C         1.367615         0.541294         0.071815
 C         1.779284        -0.869063        -0.248660
 C        -0.413065        -0.853928         1.375360
 H        -3.465720        -1.620313         1.911439
 H        -0.823874        -3.134939         0.117912
 H        -2.619475        -3.210270         0.064014
 H        -2.469070        -0.898103        -1.231281
 H         1.271238         1.131562        -0.860887
 H         1.863427         0.944306         0.848394
 H         1.572182        -1.239184        -1.307709
 H         2.420487        -1.386864         0.459634
 H        -0.157892        -1.725704         1.950968
 H        -0.580498        -0.015941         2.098979
