19
Iteration:  2584
 O        -2.994175        -1.215302         1.604516
 C        -1.821605        -1.309191         0.851992
 C        -1.486965        -2.506984         0.030529
 C        -1.756059        -1.223324        -0.644140
 O        -0.586647        -0.421105        -1.017021
 C         0.330098        -0.370049         0.132790
 C         1.639784         0.338877         0.006626
 C         1.519877        -1.146564        -0.168230
 C        -0.571766        -0.531100         1.317352
 H        -2.828618        -1.560438         2.510872
 H        -0.384386        -2.748331        -0.075556
 H        -2.181176        -3.376348        -0.013102
 H        -2.550722        -1.075187        -1.378548
 H         1.894534         1.065518        -0.848604
 H         1.932111         0.625676         0.987317
 H         1.460913        -1.763034        -1.139813
 H         1.958185        -1.790124         0.637787
 H        -0.078369        -1.128257         2.135658
 H        -0.990299         0.330315         1.760307
