19
Iteration:  2128
 O        -3.021330        -1.302524         1.645722
 C        -1.791049        -1.248402         0.887977
 C        -1.550992        -2.513841        -0.039671
 C        -1.782057        -1.241898        -0.677860
 O        -0.636168        -0.476273        -1.070513
 C         0.276738        -0.357462         0.048257
 C         1.701023         0.344122        -0.012646
 C         1.620315        -1.115899        -0.016723
 C        -0.519815        -0.453451         1.371255
 H        -2.943065        -1.883383         2.401643
 H        -0.593705        -2.973720        -0.278712
 H        -2.338447        -3.229801         0.029463
 H        -2.762613        -0.795955        -1.226361
 H         1.996889         0.657404        -0.955155
 H         1.951682         0.900218         0.951683
 H         1.657094        -1.481497        -1.061007
 H         1.964757        -1.906694         0.732665
 H         0.070218        -0.977523         2.080522
 H        -0.754658         0.606455         1.695380
