19
Iteration:  3413charge 0 multiplicity 1
 O        -2.737743        -0.580384         1.574342
 C        -1.762382        -1.371473         0.868830
 C        -2.100995        -2.539608        -0.017750
 C        -1.758313        -1.277872        -0.702550
 O        -0.404858        -1.086552        -1.038820
 C         0.352898        -0.584061         0.060429
 C         1.082456         0.752698         0.215961
 C         1.906423        -0.538708        -0.053066
 C        -0.289267        -1.261639         1.248647
 H        -3.437277        -1.273526         1.669504
 H        -1.165757        -3.134074         0.080268
 H        -3.033324        -3.154811        -0.085779
 H        -2.455660        -0.661400        -1.231324
 H         0.877241         1.560700        -0.542634
 H         0.914174         1.171408         1.233509
 H         1.937658        -0.806971        -1.173036
 H         2.595935        -0.908414         0.687797
 H         0.177603        -2.211097         1.518891
 H        -0.099391        -0.655545         2.128988
