19
Iteration:  4284charge 0 multiplicity 1
 O        -3.038047        -1.019241         1.465886
 C        -1.792298        -1.273758         0.849820
 C        -1.498995        -2.623516         0.077625
 C        -1.725984        -1.154237        -0.638425
 O        -0.578510        -0.446416        -0.990011
 C         0.327409        -0.507638         0.126910
 C         1.414870         0.338925        -0.003637
 C         1.691961        -1.049682        -0.161355
 C        -0.514557        -0.742588         1.389884
 H        -2.970748        -1.345866         2.369454
 H        -0.487867        -2.869700         0.416798
 H        -2.172119        -3.466208        -0.047760
 H        -2.674798        -1.038959        -1.322605
 H         1.638034         0.889483        -0.824724
 H         1.675042         0.896162         0.894155
 H         1.796867        -1.545590        -1.140755
 H         2.247940        -1.535585         0.732248
 H         0.029194        -1.223609         2.191590
 H        -0.866494         0.257008         1.722416
