19
Iteration:  3800
 O        -2.981797        -0.905593         1.570327
 C        -1.808035        -1.292526         0.873642
 C        -1.725340        -2.525540         0.020949
 C        -1.696653        -1.156343        -0.617688
 O        -0.456621        -0.761904        -1.121043
 C         0.368327        -0.592345         0.094618
 C         1.257464         0.620184         0.064200
 C         1.793149        -0.921115        -0.114318
 C        -0.434606        -0.926778         1.366750
 H        -3.223771        -1.614362         2.174622
 H        -0.836898        -3.144953         0.254314
 H        -2.674516        -2.946826        -0.218088
 H        -2.539308        -0.870066        -1.207363
 H         1.120337         1.502279        -0.662279
 H         1.501754         1.027261         1.055944
 H         1.770268        -1.172089        -1.135473
 H         2.450937        -1.433322         0.610808
 H         0.009277        -1.728285         1.977732
 H        -0.425968         0.003313         1.998671
