19
Iteration:  3206charge 0 multiplicity 1
 O        -2.866422        -0.853532         1.623527
 C        -1.800866        -1.339732         0.803150
 C        -1.967883        -2.614087        -0.095952
 C        -1.727634        -1.221937        -0.673558
 O        -0.457004        -0.774591        -1.053451
 C         0.374523        -0.597793         0.158740
 C         1.282255         0.604566         0.012831
 C         1.921049        -0.718492        -0.112846
 C        -0.441566        -0.945218         1.433637
 H        -3.020371        -1.316196         2.439469
 H        -1.194815        -3.371747        -0.046480
 H        -2.900632        -3.167479        -0.116412
 H        -2.565544        -0.615827        -1.027772
 H         1.001882         1.049272        -0.993212
 H         1.407306         1.221785         0.860471
 H         2.180307        -1.206537        -1.052123
 H         2.434946        -1.283661         0.692717
 H        -0.012716        -1.754959         2.007978
 H        -0.639993        -0.101149         2.099084
