19
Iteration:  2659charge 0 multiplicity 1
 O        -3.040110        -1.325761         1.585236
 C        -1.793933        -1.319108         0.978787
 C        -1.537729        -2.427859         0.004201
 C        -1.758598        -1.142276        -0.658007
 O        -0.522751        -0.450343        -1.038335
 C         0.336767        -0.377002         0.065620
 C         1.629466         0.326761        -0.122646
 C         1.558336        -1.182208        -0.030481
 C        -0.603394        -0.486352         1.401942
 H        -3.016318        -2.000200         2.277904
 H        -0.475455        -2.815775        -0.232511
 H        -2.334144        -3.175046        -0.006048
 H        -2.566548        -0.752228        -1.258893
 H         1.805898         0.744695        -1.216192
 H         1.975602         0.844660         0.691947
 H         1.593469        -1.781673        -1.019900
 H         2.055519        -1.837988         0.709554
 H         0.129306        -0.645417         2.230938
 H        -0.952754         0.544494         1.703358
