19
Iteration:   498
 O        -3.003692        -1.242374         1.576110
 C        -1.707347        -1.338027         0.912103
 C        -1.434195        -2.589122         0.048077
 C        -1.757102        -1.264417        -0.580052
 O        -0.668249        -0.449902        -1.071949
 C         0.281415        -0.423647         0.074316
 C         1.478353         0.362535        -0.063881
 C         1.625156        -1.165257        -0.112832
 C        -0.522563        -0.417268         1.350220
 H        -2.830231        -0.535536         2.245917
 H        -0.428997        -2.898726         0.104615
 H        -2.147033        -3.332540         0.000295
 H        -2.766525        -0.964940        -0.910551
 H         1.608907         0.839944        -1.075876
 H         1.761647         1.086829         0.761902
 H         1.865472        -1.518939        -1.031470
 H         2.118434        -1.696288         0.731270
 H         0.001144        -1.030511         2.169937
 H        -0.819251         0.552449         1.699143
