19
Iteration:  2968
 O        -2.937961        -1.222669         1.598575
 C        -1.708499        -1.335944         0.859914
 C        -1.507509        -2.557135        -0.090407
 C        -1.828148        -1.138482        -0.655864
 O        -0.615950        -0.417761        -1.016187
 C         0.296052        -0.419517         0.080495
 C         1.573012         0.281951        -0.034771
 C         1.600986        -1.180301        -0.002083
 C        -0.561768        -0.430207         1.324991
 H        -3.046868        -1.718201         2.397682
 H        -0.532300        -2.921765        -0.270638
 H        -2.298550        -3.185590         0.092991
 H        -2.825968        -0.958345        -1.225554
 H         1.735700         0.887007        -0.824028
 H         1.854323         0.747654         0.960950
 H         1.694569        -1.904946        -0.746665
 H         1.885803        -1.583065         0.962799
 H         0.099677        -0.888420         2.157818
 H        -0.889637         0.542290         1.683967
