19
Iteration:   974charge 0 multiplicity 1
 O        -2.846192        -0.900439         1.566432
 C        -1.759358        -1.379603         0.898372
 C        -2.036008        -2.542408        -0.013762
 C        -1.726431        -1.164799        -0.638535
 O        -0.452360        -1.004964        -1.060958
 C         0.364533        -0.591136         0.118186
 C         1.246623         0.754198         0.105780
 C         1.883795        -0.639982        -0.185882
 C        -0.386852        -0.972872         1.355550
 H        -3.256127        -1.524134         2.241500
 H        -1.150486        -3.288838        -0.133735
 H        -3.088825        -2.811948         0.008602
 H        -2.586604        -0.693947        -1.240103
 H         1.193541         1.462889        -0.698365
 H         1.500359         1.204408         1.067698
 H         2.108261        -0.901286        -1.280954
 H         2.587606        -1.162776         0.598422
 H         0.142536        -1.811926         1.855134
 H        -0.516309        -0.145839         2.116035
