19
Iteration:   162charge 0 multiplicity 1
 O        -2.902902        -1.014576         1.573836
 C        -1.771730        -1.398043         0.929653
 C        -1.625393        -2.617097         0.170609
 C        -1.752331        -1.208628        -0.538363
 O        -0.624220        -0.662412        -1.102071
 C         0.309551        -0.499198        -0.029963
 C         1.424550         0.532858         0.085909
 C         1.767138        -0.937224        -0.204536
 C        -0.490660        -0.671839         1.274648
 H        -3.510361        -1.780603         1.749816
 H        -0.793370        -3.211033         0.183691
 H        -2.524587        -3.090852         0.008879
 H        -2.611539        -1.105807        -1.199226
 H         1.519526         1.422714        -0.557985
 H         1.543165         0.886934         1.114094
 H         2.147154        -1.140305        -1.117627
 H         2.244445        -1.447899         0.687837
 H        -0.010184        -1.124287         2.062931
 H        -0.716938         0.420857         1.561981
