19
Iteration:   661
 O        -2.922858        -0.955738         1.570257
 C        -1.805739        -1.377615         0.868686
 C        -1.581142        -2.680299         0.037436
 C        -1.815428        -1.231190        -0.585555
 O        -0.591874        -0.552658        -1.100384
 C         0.319343        -0.518218         0.065734
 C         1.404458         0.534534         0.089900
 C         1.737394        -0.988912        -0.166505
 C        -0.505245        -0.768020         1.349139
 H        -2.623263        -1.009238         2.479075
 H        -0.574067        -2.964678         0.228959
 H        -2.424041        -3.297160        -0.105406
 H        -2.713362        -1.041492        -1.188870
 H         1.396340         1.157753        -0.916266
 H         1.759456         1.122282         0.989215
 H         2.091581        -1.128013        -1.231568
 H         2.216880        -1.568398         0.543071
 H         0.039854        -1.484134         2.108232
 H        -0.797969         0.113894         1.965006
