19
Iteration:  4512
 O        -2.910524        -0.962615         1.544423
 C        -1.773402        -1.368811         0.897439
 C        -1.961458        -2.605053        -0.107841
 C        -1.758665        -1.225280        -0.610873
 O        -0.491184        -0.739764        -1.013164
 C         0.396237        -0.496614         0.126325
 C         1.411618         0.623167        -0.048762
 C         1.810842        -0.910535        -0.019504
 C        -0.411332        -0.794165         1.390091
 H        -3.102967        -1.640440         2.240834
 H        -1.122174        -3.290712        -0.325508
 H        -2.988318        -2.963698        -0.033182
 H        -2.551205        -0.711655        -1.082492
 H         1.279264         1.109323        -1.005261
 H         1.723061         1.230249         0.736459
 H         2.027261        -1.458414        -0.960456
 H         2.280415        -1.250188         0.959217
 H         0.157582        -1.318348         2.105498
 H        -0.651315         0.265901         1.642780
