19
Iteration:   303
 O        -2.876068        -0.961109         1.740117
 C        -1.794067        -1.244740         0.839349
 C        -1.863733        -2.571346         0.109979
 C        -1.716028        -1.202265        -0.714387
 O        -0.368342        -0.921500        -1.081594
 C         0.375179        -0.543447         0.104325
 C         1.198103         0.653853         0.040155
 C         1.781600        -0.809537        -0.232248
 C        -0.419789        -0.800021         1.379880
 H        -3.557575        -1.633891         1.475714
 H        -1.081177        -3.180153         0.070299
 H        -2.725553        -3.151276        -0.079199
 H        -2.559022        -1.086028        -1.440370
 H         1.086934         1.442149        -0.727368
 H         1.497807         1.085104         1.031418
 H         1.824618        -1.119710        -1.333855
 H         2.488177        -1.189961         0.409900
 H        -0.067363        -1.576361         2.055693
 H        -0.533992         0.147347         1.985017
