19
Iteration:  3818
 O        -2.905514        -0.960026         1.642344
 C        -1.771894        -1.260840         0.831530
 C        -1.782024        -2.592834         0.038448
 C        -1.722740        -1.155474        -0.679035
 O        -0.484204        -0.618546        -1.060291
 C         0.359211        -0.662141         0.084782
 C         1.262123         0.483227         0.034548
 C         1.830599        -0.885473        -0.087936
 C        -0.495449        -0.830631         1.328265
 H        -3.355441        -1.735960         1.982803
 H        -0.797244        -3.091435         0.005371
 H        -2.729120        -3.108415        -0.113885
 H        -2.611819        -0.830948        -1.409824
 H         1.225087         0.964866        -0.910247
 H         1.484749         1.147051         0.890198
 H         2.479783        -1.252485        -0.865892
 H         2.260061        -1.213840         0.922547
 H        -0.000067        -1.481789         2.091549
 H        -0.689364         0.121582         1.787851
