19
Iteration:  2296
 O        -2.893781        -1.006662         1.502233
 C        -1.744966        -1.323728         0.865057
 C        -1.804884        -2.554751         0.109554
 C        -1.773089        -1.149217        -0.610319
 O        -0.563111        -0.571543        -1.113921
 C         0.340596        -0.474519         0.082700
 C         1.356888         0.524703        -0.056469
 C         1.774227        -0.996097        -0.008388
 C        -0.402795        -0.858867         1.419785
 H        -3.066406        -1.830290         1.961542
 H        -0.878738        -3.070361        -0.105713
 H        -2.640440        -3.114166        -0.238340
 H        -2.701247        -0.755456        -1.045111
 H         1.283142         1.019204        -0.961665
 H         1.641577         1.008347         0.926469
 H         2.066695        -1.403559        -0.921791
 H         2.272644        -1.513223         0.781049
 H         0.110946        -1.643456         1.911091
 H        -0.543557        -0.038505         2.153552
