19
Iteration:  2330
 O        -2.938925        -0.880668         1.696495
 C        -1.848491        -1.365052         0.876797
 C        -1.848291        -2.603848        -0.132774
 C        -1.787773        -1.201873        -0.689634
 O        -0.464168        -0.737872        -1.002593
 C         0.378717        -0.572949         0.127158
 C         1.329141         0.588679        -0.006342
 C         1.891101        -0.906871        -0.114375
 C        -0.440437        -0.839487         1.378876
 H        -3.048791        -1.540329         2.379092
 H        -0.894276        -3.039309        -0.262710
 H        -2.720957        -3.056941        -0.560859
 H        -2.614868        -0.792558        -1.460216
 H         1.206598         1.295637        -0.744909
 H         1.660580         1.063139         0.948124
 H         2.087739        -1.249630        -1.075725
 H         2.367297        -1.263013         0.734794
 H         0.085877        -1.434894         2.135979
 H        -0.580474         0.138001         1.832935
