19
Iteration:    16
 O        -2.918970        -1.077117         1.725034
 C        -1.807131        -1.428600         0.833551
 C        -1.402093        -2.645726         0.119891
 C        -1.736401        -1.280245        -0.678882
 O        -0.637202        -0.399139        -1.109223
 C         0.255958        -0.253217         0.059987
 C         1.550125         0.410754        -0.091832
 C         1.644828        -1.072603        -0.078497
 C        -0.643012        -0.649880         1.285755
 H        -2.954864        -1.698012         2.466291
 H        -0.358229        -2.978335         0.430050
 H        -2.305629        -3.514925         0.164164
 H        -2.498965        -1.350414        -1.456401
 H         1.704590         0.882500        -1.089464
 H         2.014467         1.035063         0.691319
 H         1.608641        -1.678700        -0.993019
 H         1.677459        -1.698100         0.923534
 H        -0.042463        -1.130763         2.192073
 H        -1.110300         0.209137         1.715191
