19
Iteration:  4481charge 0 multiplicity 1
 O        -2.993719        -0.961781         1.492207
 C        -1.784599        -1.306960         0.860141
 C        -1.788008        -2.659550         0.096689
 C        -1.694134        -1.230302        -0.618631
 O        -0.513355        -0.544783        -1.052078
 C         0.324281        -0.453765         0.136103
 C         1.455815         0.574120        -0.033713
 C         1.761742        -1.006022        -0.101237
 C        -0.458935        -0.850561         1.394712
 H        -3.179486        -1.670651         2.111839
 H        -0.898234        -3.323806         0.149711
 H        -2.774439        -3.151965        -0.042768
 H        -2.454148        -0.939769        -1.235924
 H         1.475655         1.062222        -0.971492
 H         1.706591         1.128066         0.815781
 H         1.898110        -1.481645        -1.100655
 H         2.281441        -1.661608         0.678393
 H         0.050187        -1.379942         2.160265
 H        -0.600825         0.138809         1.882021
