19
Iteration:   450
 O        -2.967611        -1.011576         1.593723
 C        -1.802182        -1.351875         0.891992
 C        -1.658631        -2.710277         0.133935
 C        -1.689040        -1.256516        -0.640063
 O        -0.543757        -0.545939        -1.032642
 C         0.294763        -0.384136         0.114854
 C         1.427315         0.510345        -0.223722
 C         1.719597        -0.946752        -0.088255
 C        -0.492984        -0.721919         1.430430
 H        -3.123654        -1.820806         2.109268
 H        -0.656816        -3.283282         0.245216
 H        -2.691386        -3.217384        -0.016377
 H        -2.442226        -1.085937        -1.419113
 H         1.581735         0.939909        -1.198082
 H         1.722139         1.170246         0.527299
 H         1.806837        -1.438518        -1.133997
 H         2.285015        -1.392670         0.720591
 H         0.125004        -1.360794         2.067188
 H        -0.827212         0.160793         1.994337
