19
Iteration:  1041charge 0 multiplicity 1
 O        -2.831947        -0.778065         1.528593
 C        -1.754782        -1.403096         0.821796
 C        -2.084706        -2.671790         0.025464
 C        -1.766533        -1.289186        -0.604539
 O        -0.525565        -0.807545        -1.013241
 C         0.441762        -0.540984         0.052252
 C         1.168876         0.700413         0.050082
 C         1.912882        -0.647464        -0.032243
 C        -0.277325        -1.036888         1.313118
 H        -3.075276        -1.390041         2.226655
 H        -1.260348        -3.339950         0.021070
 H        -3.145993        -2.928593         0.121194
 H        -2.513660        -0.797689        -1.130216
 H         1.163905         1.085427        -1.011743
 H         1.360108         1.242965         0.993225
 H         2.259811        -0.909906        -1.146237
 H         2.470477        -1.049122         0.828353
 H         0.160007        -2.036422         1.434818
 H        -0.191139        -0.427094         2.204512
