19
Iteration:  2602charge 0 multiplicity 1
 O        -2.992872        -1.207336         1.656760
 C        -1.801848        -1.346577         0.820556
 C        -1.384512        -2.588697         0.025680
 C        -1.647951        -1.163624        -0.640242
 O        -0.648666        -0.285623        -1.072881
 C         0.231537        -0.340240         0.057042
 C         1.635129         0.290227        -0.029520
 C         1.513342        -1.240150        -0.070799
 C        -0.641284        -0.537926         1.388626
 H        -2.805338        -1.704721         2.478025
 H        -0.614767        -3.234854         0.323600
 H        -2.191990        -3.230575        -0.345141
 H        -2.644783        -1.068219        -1.349860
 H         1.837498         0.655500        -0.989002
 H         2.213244         0.837801         0.785661
 H         1.803144        -1.614846        -0.989221
 H         1.885990        -1.820228         0.736385
 H         0.042174        -0.961731         2.090025
 H        -0.937530         0.573496         1.602184
