19
Iteration:  4065
 O        -2.954077        -0.940768         1.571854
 C        -1.858790        -1.384950         0.909554
 C        -1.724260        -2.597971         0.002183
 C        -1.815797        -1.196843        -0.669486
 O        -0.573496        -0.600734        -1.078165
 C         0.346685        -0.560934         0.100521
 C         1.511749         0.543862         0.046921
 C         1.804789        -0.978340         0.000617
 C        -0.464457        -0.786112         1.294442
 H        -2.999297        -1.409564         2.401252
 H        -0.872955        -3.243059        -0.095657
 H        -2.546249        -3.277746        -0.194298
 H        -2.564711        -0.971575        -1.429449
 H         1.526022         1.176653        -0.893250
 H         1.658485         1.109550         0.885959
 H         2.096256        -1.232682        -1.054788
 H         2.168903        -1.455059         0.893340
 H         0.212156        -1.328356         1.951219
 H        -0.654814         0.242709         1.720236
