19
Iteration:  3894charge 0 multiplicity 1
 O        -2.980854        -1.223844         1.583914
 C        -1.849100        -1.182648         0.856610
 C        -1.491272        -2.544094        -0.003599
 C        -1.771230        -1.162113        -0.635743
 O        -0.561495        -0.475976        -0.979299
 C         0.307531        -0.596301         0.102470
 C         1.533419         0.362011        -0.052643
 C         1.678142        -1.117657        -0.094734
 C        -0.569047        -0.518624         1.350948
 H        -3.078898        -1.741625         2.383921
 H        -0.451504        -2.902231        -0.176267
 H        -2.343921        -3.203799        -0.051958
 H        -2.697721        -0.820051        -1.281026
 H         1.328083         0.881301        -0.995768
 H         1.824693         1.076127         0.679487
 H         2.018131        -1.642500        -0.960825
 H         2.139625        -1.508484         0.894638
 H        -0.137912        -0.938234         2.297294
 H        -0.801293         0.518038         1.558086
