19
Iteration:  2614charge 0 multiplicity 1
 O        -2.955375        -1.216269         1.603190
 C        -1.754154        -1.354610         0.886531
 C        -1.421328        -2.569729         0.026703
 C        -1.648919        -1.201100        -0.637326
 O        -0.672109        -0.205984        -1.049628
 C         0.317638        -0.399437         0.093807
 C         1.563708         0.277693        -0.066165
 C         1.515855        -1.280520        -0.033085
 C        -0.570499        -0.473355         1.322003
 H        -2.908344        -1.828275         2.339793
 H        -0.442716        -3.016279        -0.027901
 H        -2.350958        -3.138957        -0.145638
 H        -2.567229        -1.306666        -1.426983
 H         1.779387         0.654790        -1.084621
 H         1.788223         0.983976         0.730771
 H         1.679760        -1.806689        -0.968597
 H         1.596709        -1.821163         0.883753
 H        -0.224940        -0.937611         2.240178
 H        -1.151780         0.408765         1.793079
