19
Iteration:   673
 O        -2.924001        -0.911188         1.560943
 C        -1.751777        -1.422962         0.880821
 C        -1.682860        -2.647234         0.057506
 C        -1.692146        -1.293264        -0.609406
 O        -0.646972        -0.547595        -1.107034
 C         0.304128        -0.446906         0.038744
 C         1.460093         0.577007         0.048723
 C         1.667893        -0.916565        -0.099652
 C        -0.446237        -0.874172         1.340383
 H        -2.998593        -1.164149         2.530285
 H        -0.840745        -3.292589         0.072722
 H        -2.491803        -3.394836         0.031126
 H        -2.650797        -1.071327        -1.072999
 H         1.651531         1.229781        -0.916848
 H         1.683792         1.082608         1.106398
 H         1.978388        -1.341899        -1.125276
 H         2.054461        -1.493688         0.717847
 H         0.251371        -1.594760         1.966298
 H        -0.630070         0.087147         1.835749
