19
Iteration:  1285
 O        -2.694054        -0.664632         1.716058
 C        -1.721287        -1.305488         0.824290
 C        -2.100336        -2.410317        -0.091163
 C        -1.671274        -1.135823        -0.667247
 O        -0.282087        -1.221089        -1.074112
 C         0.389721        -0.733275         0.141455
 C         0.791597         0.741199         0.018194
 C         1.788708        -0.492986        -0.026124
 C        -0.248285        -1.262940         1.332306
 H        -3.497464        -1.227895         1.678466
 H        -1.311990        -3.063494        -0.370434
 H        -3.147882        -2.727691         0.096046
 H        -2.344861        -0.499037        -1.360528
 H         0.553035         1.371064        -0.837114
 H         0.804747         1.268989         0.960183
 H         2.198484        -0.768376        -0.987378
 H         2.507524        -0.678044         0.697517
 H         0.294097        -2.207368         1.598634
 H         0.020014        -0.702903         2.179498
