19
Iteration:  1519charge 0 multiplicity 1
 O        -2.969583        -0.913387         1.626166
 C        -1.765432        -1.252858         0.880773
 C        -2.019948        -2.605676        -0.019339
 C        -1.826219        -1.200471        -0.674487
 O        -0.421382        -0.969667        -1.097733
 C         0.455879        -0.469817         0.137369
 C         1.364784         0.670692         0.019365
 C         1.855218        -0.671282        -0.113902
 C        -0.362861        -1.005641         1.345171
 H        -3.097845        -1.510786         2.395270
 H        -1.291048        -3.335182        -0.145855
 H        -3.033098        -3.065433         0.054242
 H        -2.563397        -0.722346        -1.268406
 H         1.273773         1.552314        -0.580890
 H         1.742562         1.319425         0.856511
 H         1.979750        -1.018787        -1.087807
 H         2.495392        -1.202001         0.637471
 H        -0.050949        -1.898984         1.969534
 H        -0.426057        -0.164812         2.111406
