19
Iteration:  4668charge 0 multiplicity 1
 O        -2.917976        -0.791067         1.626297
 C        -1.815459        -1.332286         0.874007
 C        -1.968684        -2.572638        -0.121070
 C        -1.791453        -1.190674        -0.619228
 O        -0.499983        -0.967443        -0.984098
 C         0.438647        -0.587438         0.051480
 C         1.316644         0.663570         0.016086
 C         1.919830        -0.711132        -0.028837
 C        -0.400390        -0.988015         1.290090
 H        -2.925267        -1.410461         2.381467
 H        -1.167910        -3.359863        -0.187196
 H        -2.992962        -2.954384        -0.272890
 H        -2.662625        -0.672899        -1.296353
 H         1.436151         1.234517        -1.032966
 H         1.288616         1.196329         1.007499
 H         2.433268        -0.919723        -1.006076
 H         2.353369        -1.014844         0.917880
 H         0.138493        -1.761618         1.882846
 H        -0.416337        -0.173260         2.081039
