19
Iteration:  3156
 O        -2.948708        -1.038255         1.602757
 C        -1.756104        -1.323258         0.922074
 C        -1.869339        -2.538532         0.041072
 C        -1.794098        -1.119278        -0.657570
 O        -0.500880        -0.770748        -1.096572
 C         0.369497        -0.516039         0.042334
 C         1.365086         0.579249        -0.047752
 C         1.852988        -0.907122        -0.002002
 C        -0.419680        -0.817168         1.355109
 H        -3.442833        -1.789710         1.991002
 H        -1.004384        -3.181512        -0.357661
 H        -2.913887        -2.927119         0.070692
 H        -2.690962        -0.711992        -1.176981
 H         1.459827         1.229928        -0.927619
 H         1.681770         1.258391         0.850227
 H         2.256249        -1.091878        -0.969086
 H         2.535668        -1.256145         0.854705
 H         0.114616        -1.561936         2.032441
 H        -0.595656         0.086098         1.993702
