19
Iteration:  2815
 O        -2.890884        -1.004752         1.552344
 C        -1.659053        -1.380934         0.895434
 C        -1.823049        -2.475188         0.001929
 C        -1.836259        -1.062252        -0.630271
 O        -0.505209        -0.742144        -1.134174
 C         0.321717        -0.538874         0.047721
 C         1.363495         0.515807         0.002789
 C         1.767158        -0.889826        -0.012283
 C        -0.453990        -0.854827         1.439900
 H        -3.223070        -1.797914         2.009145
 H        -0.993718        -3.202576        -0.038180
 H        -2.692479        -3.088295         0.172650
 H        -2.701960        -0.600460        -1.207722
 H         1.554333         1.037785        -1.009725
 H         1.544120         1.161389         0.804950
 H         2.104976        -1.309706        -0.998261
 H         2.260366        -1.183659         0.925082
 H         0.174701        -1.526581         2.131105
 H        -0.661783         0.101952         1.873741
