19
Iteration:   897
 O        -2.845675        -0.854102         1.665066
 C        -1.807363        -1.345957         0.922443
 C        -1.928706        -2.513639        -0.019970
 C        -1.708057        -1.238331        -0.660459
 O        -0.395301        -0.865474        -1.061515
 C         0.320516        -0.604748         0.057741
 C         1.154983         0.719221         0.021134
 C         1.805724        -0.726074        -0.084563
 C        -0.357597        -1.023086         1.324335
 H        -3.188962        -1.682348         2.027314
 H        -1.095679        -3.198170         0.092168
 H        -2.976827        -2.871701        -0.304346
 H        -2.537891        -0.686250        -1.213612
 H         1.143268         1.105073        -0.937031
 H         1.355627         1.330206         0.823518
 H         2.137230        -0.908440        -1.091208
 H         2.487989        -1.137202         0.772596
 H         0.187479        -1.924934         1.567464
 H        -0.219564        -0.313619         2.182503
