19
Iteration:   766
 O        -2.800421        -1.042412         1.646201
 C        -1.764852        -1.398762         0.870258
 C        -1.991918        -2.515066         0.005146
 C        -1.731005        -1.119050        -0.580906
 O        -0.457969        -0.898553        -1.122606
 C         0.351281        -0.496410         0.069056
 C         1.329276         0.685676        -0.046087
 C         1.813953        -0.787502        -0.026711
 C        -0.467730        -0.839820         1.364934
 H        -3.312554        -1.805080         1.880362
 H        -1.251868        -3.339644        -0.158988
 H        -3.009621        -2.881840         0.043668
 H        -2.426056        -0.693994        -1.316829
 H         1.448497         1.290780        -0.930048
 H         1.519075         1.109092         0.797623
 H         2.203675        -1.181379        -1.017773
 H         2.337098        -0.918016         0.852170
 H         0.032028        -1.524175         1.934677
 H        -0.680261         0.052853         1.971326
