19
Iteration:  4315
 O        -3.004432        -1.160143         1.577444
 C        -1.748513        -1.325969         0.869591
 C        -1.588170        -2.644153        -0.081220
 C        -1.715148        -1.256171        -0.656057
 O        -0.600042        -0.457619        -1.079983
 C         0.264501        -0.336147         0.117428
 C         1.593086         0.337336         0.056330
 C         1.604347        -1.150597        -0.071459
 C        -0.496090        -0.426586         1.369105
 H        -2.898457        -1.570947         2.474401
 H        -0.673799        -3.228977        -0.080848
 H        -2.458934        -3.263550         0.008269
 H        -2.695044        -1.135592        -1.243922
 H         1.974369         0.756935        -0.808186
 H         1.865472         0.846543         1.065438
 H         1.743408        -1.666772        -1.018012
 H         1.935516        -1.776249         0.807202
 H         0.062669        -0.596756         2.264523
 H        -0.970284         0.562084         1.621462
