19
Iteration:  2373
 O        -2.996148        -0.919784         1.533989
 C        -1.799969        -1.293009         0.887381
 C        -1.917719        -2.594019        -0.023669
 C        -1.749497        -1.217742        -0.594598
 O        -0.507069        -0.760089        -1.056852
 C         0.391434        -0.528622         0.055431
 C         1.356895         0.590250         0.086795
 C         1.829189        -0.836161        -0.117870
 C        -0.281660        -0.871970         1.361640
 H        -3.052227        -1.561928         2.262499
 H        -1.059287        -3.218373        -0.181775
 H        -2.931576        -3.015785        -0.096928
 H        -2.654722        -0.681421        -1.164592
 H         1.365520         1.207071        -0.788718
 H         1.448972         1.028790         1.088787
 H         2.121778        -1.299838        -1.032995
 H         2.188998        -1.279096         0.743435
 H         0.173095        -1.739262         1.789163
 H        -0.306015        -0.135409         2.181643
