19
Iteration:   754charge 0 multiplicity 1
 O        -2.839117        -1.065407         1.695642
 C        -1.739890        -1.276778         0.846146
 C        -1.910295        -2.504203        -0.026934
 C        -1.790967        -1.105699        -0.698287
 O        -0.378099        -0.930342        -1.021151
 C         0.330519        -0.561646         0.118854
 C         1.301973         0.650266        -0.023301
 C         1.762467        -0.787878        -0.103733
 C        -0.454658        -0.800159         1.395875
 H        -3.377191        -1.888665         1.686577
 H        -0.983900        -3.094037        -0.337386
 H        -2.869297        -2.980989         0.070148
 H        -2.680350        -0.800192        -1.234041
 H         1.320240         1.235252        -0.930653
 H         1.487800         1.213371         0.777928
 H         1.982418        -1.134845        -1.139195
 H         2.464400        -1.303473         0.549108
 H         0.001770        -1.435404         2.079487
 H        -0.664498         0.156287         1.891472
