19
Iteration:  4939
 O        -2.835104        -0.714661         1.722011
 C        -1.787757        -1.312017         0.844461
 C        -1.971709        -2.608645        -0.039002
 C        -1.727404        -1.193827        -0.642759
 O        -0.435227        -0.948448        -1.074901
 C         0.379866        -0.636925         0.058235
 C         1.135651         0.615233         0.005453
 C         1.937739        -0.668456        -0.008991
 C        -0.397080        -1.082416         1.329386
 H        -3.568074        -0.633101         1.117734
 H        -1.146413        -3.265633        -0.258422
 H        -2.984522        -2.916367        -0.115921
 H        -2.481708        -0.747255        -1.229120
 H         1.128520         1.207798        -0.904666
 H         1.085110         1.210473         0.882197
 H         2.584547        -0.881534        -0.828315
 H         2.469438        -1.062864         0.766856
 H         0.092821        -1.969901         1.825010
 H        -0.491211        -0.285002         2.137951
