19
Iteration:  3998
 O        -3.104032        -1.284663         1.644152
 C        -1.854245        -1.275013         0.804066
 C        -1.515591        -2.483550         0.069573
 C        -1.753337        -1.124613        -0.597469
 O        -0.517351        -0.451490        -1.036351
 C         0.311105        -0.413827         0.111822
 C         1.636666         0.273853        -0.138589
 C         1.711098        -1.158459        -0.046542
 C        -0.603341        -0.431921         1.332871
 H        -3.236332        -2.074295         2.241345
 H        -0.470426        -2.898311        -0.002635
 H        -2.270283        -3.269571        -0.027552
 H        -2.594251        -1.063586        -1.412454
 H         1.542589         0.789227        -1.056656
 H         2.008037         0.889296         0.738192
 H         1.766095        -1.607078        -0.996353
 H         2.259591        -1.582118         0.835908
 H        -0.168635        -1.150747         2.002662
 H        -0.901616         0.523902         1.826513
