19
Iteration:  2225charge 0 multiplicity 1
 O        -2.971355        -1.155798         1.518386
 C        -1.755669        -1.232602         0.877201
 C        -1.504779        -2.542054         0.029508
 C        -1.705800        -1.207081        -0.597707
 O        -0.608974        -0.430939        -0.950941
 C         0.303583        -0.509933         0.081804
 C         1.416987         0.380127         0.047003
 C         1.578052        -1.206591        -0.183753
 C        -0.477844        -0.524456         1.357587
 H        -2.845561        -1.594989         2.360762
 H        -0.508773        -2.918690        -0.199864
 H        -2.335831        -3.201980        -0.229657
 H        -2.610056        -1.061851        -1.363927
 H         1.507201         0.767292        -0.940557
 H         1.569294         0.908952         1.005844
 H         1.880539        -1.544553        -1.176379
 H         2.144217        -1.855540         0.541112
 H         0.101737        -1.059993         2.157186
 H        -0.692295         0.475865         1.730468
