19
Iteration:  3412
 O        -2.734970        -0.583350         1.572174
 C        -1.762683        -1.370047         0.871282
 C        -2.099842        -2.545249        -0.013035
 C        -1.761391        -1.272103        -0.697779
 O        -0.399978        -1.091549        -1.039169
 C         0.356765        -0.582012         0.059360
 C         1.082473         0.754328         0.215769
 C         1.900247        -0.534941        -0.061682
 C        -0.299919        -1.261154         1.250076
 H        -3.417253        -1.262124         1.664283
 H        -1.147325        -3.121300         0.067259
 H        -3.031639        -3.150658        -0.133946
 H        -2.486031        -0.640481        -1.238865
 H         0.913511         1.558349        -0.543441
 H         0.920339         1.165092         1.253555
 H         1.956292        -0.816803        -1.157654
 H         2.606764        -0.926695         0.685978
 H         0.174739        -2.220840         1.531353
 H        -0.118906        -0.644924         2.155997
