19
Iteration:   630charge 0 multiplicity 1
 O        -3.039566        -1.203865         1.629413
 C        -1.841790        -1.307759         0.885507
 C        -1.576146        -2.528918         0.042753
 C        -1.729816        -1.186872        -0.656835
 O        -0.517895        -0.525010        -1.050587
 C         0.350279        -0.573952         0.114258
 C         1.457463         0.452952        -0.015501
 C         1.718095        -1.046170        -0.233590
 C        -0.537299        -0.561816         1.394301
 H        -2.964080        -1.373786         2.604674
 H        -0.642256        -3.032622         0.209199
 H        -2.524060        -3.066925         0.125744
 H        -2.587513        -1.026301        -1.314050
 H         1.287707         1.228009        -0.888907
 H         1.971176         1.051316         0.822661
 H         1.959477        -1.513006        -1.263583
 H         2.354275        -1.571355         0.429975
 H        -0.088263        -1.065930         2.318933
 H        -0.755211         0.468213         1.621916
