19
Iteration:  3284charge 0 multiplicity 1
 O        -2.875582        -0.745285         1.637034
 C        -1.854282        -1.308329         0.822381
 C        -1.995355        -2.632706        -0.019031
 C        -1.661729        -1.160390        -0.614054
 O        -0.366892        -0.898235        -1.166089
 C         0.388611        -0.618021         0.081732
 C         1.157763         0.611460         0.118729
 C         1.872865        -0.671700        -0.119003
 C        -0.381613        -1.042520         1.361722
 H        -3.158065        -1.468976         2.241923
 H        -1.150611        -3.360658         0.269025
 H        -3.066904        -2.969292        -0.152410
 H        -2.586710        -0.801010        -1.131284
 H         0.940141         1.305172        -0.690917
 H         1.190696         1.090127         1.179942
 H         2.360241        -0.868807        -1.083393
 H         2.634922        -1.034181         0.687290
 H         0.041334        -2.010020         1.692691
 H        -0.445781        -0.309406         2.155650
