19
Iteration:  2957
 O        -2.950629        -1.179919         1.597809
 C        -1.762588        -1.364290         0.862254
 C        -1.577358        -2.544858        -0.045103
 C        -1.689370        -1.142958        -0.646026
 O        -0.569089        -0.441368        -1.084174
 C         0.265435        -0.448834         0.118152
 C         1.532419         0.382733        -0.010808
 C         1.548203        -1.184281        -0.049145
 C        -0.502217        -0.498850         1.384265
 H        -2.767530        -1.676924         2.415310
 H        -0.659125        -3.031479         0.122506
 H        -2.334673        -3.250129        -0.134482
 H        -2.561774        -0.934689        -1.370784
 H         1.659675         0.874768        -0.898269
 H         1.925447         0.898386         0.910496
 H         1.448952        -1.614292        -1.006551
 H         2.100004        -1.691633         0.726736
 H        -0.019211        -0.975786         2.300730
 H        -1.066678         0.373135         1.650273
