19
Iteration:  3599
 O        -2.779748        -0.710512         1.547065
 C        -1.810130        -1.364349         0.837153
 C        -2.104681        -2.602163         0.007899
 C        -1.666475        -1.187374        -0.649471
 O        -0.394098        -0.952476        -1.154056
 C         0.388232        -0.681669         0.084845
 C         1.038123         0.705895         0.124776
 C         1.934274        -0.524175        -0.076773
 C        -0.357131        -1.182830         1.368220
 H        -2.987188        -1.312298         2.331334
 H        -1.557001        -3.467300         0.407199
 H        -3.171497        -2.685403        -0.178889
 H        -2.411485        -0.664801        -1.181876
 H         1.064558         1.392791        -0.657805
 H         1.131164         1.015714         1.133089
 H         2.468136        -0.668741        -0.964648
 H         2.558477        -0.983704         0.784075
 H         0.039156        -2.124638         1.847443
 H        -0.224579        -0.447365         2.121008
