19
Iteration:  2052
 O        -3.103492        -0.994615         1.497156
 C        -1.816629        -1.373008         0.906307
 C        -1.714498        -2.577990         0.073335
 C        -1.728698        -1.160692        -0.523867
 O        -0.455755        -0.604481        -1.033152
 C         0.342087        -0.478299         0.125166
 C         1.523853         0.534796        -0.006677
 C         1.725908        -0.949313        -0.234628
 C        -0.477787        -0.865128         1.383459
 H        -3.178884        -1.590967         2.296784
 H        -0.703524        -2.935114         0.015211
 H        -2.384790        -3.352819        -0.101263
 H        -2.756485        -0.890076        -1.008339
 H         1.497495         1.128216        -0.921766
 H         1.880566         1.044182         0.928627
 H         1.735018        -1.167964        -1.350040
 H         2.435277        -1.345448         0.467371
 H         0.056041        -1.590923         1.957182
 H        -0.701403         0.133872         1.915087
