19
Iteration:  1204charge 0 multiplicity 1
 O        -2.754036        -0.614282         1.573326
 C        -1.758039        -1.323723         0.816966
 C        -1.989038        -2.552884        -0.028900
 C        -1.792679        -1.153179        -0.669341
 O        -0.393256        -1.096828        -1.106804
 C         0.365505        -0.732738         0.073584
 C         0.939170         0.678752         0.151293
 C         1.849921        -0.488514        -0.043756
 C        -0.264086        -1.250078         1.337392
 H        -2.599299        -0.843855         2.530861
 H        -1.186195        -3.256608        -0.208991
 H        -2.959276        -3.027769         0.022854
 H        -2.643036        -0.655764        -1.006846
 H         0.810485         1.320903        -0.721851
 H         0.944447         1.199073         1.139312
 H         2.263461        -0.562029        -1.034539
 H         2.588936        -0.833591         0.794944
 H         0.221042        -2.243359         1.546153
 H        -0.100797        -0.449302         2.120095
