19
Iteration:   137
 O        -2.903213        -0.990330         1.701894
 C        -1.781354        -1.335621         0.882695
 C        -1.496807        -2.649750         0.020291
 C        -1.740531        -1.339789        -0.684244
 O        -0.618906        -0.535880        -1.103120
 C         0.226569        -0.408104         0.048532
 C         1.419230         0.471948        -0.040632
 C         1.603494        -1.037459         0.023377
 C        -0.465685        -0.626959         1.312148
 H        -3.363723        -1.781778         2.094300
 H        -0.403628        -2.874657        -0.195819
 H        -2.226084        -3.461617         0.042194
 H        -2.631970        -1.101200        -1.259179
 H         1.681088         0.877378        -0.992963
 H         1.744699         1.173442         0.706787
 H         1.947530        -1.380315        -1.034546
 H         2.068984        -1.506504         0.841623
 H         0.113880        -1.312791         1.965032
 H        -0.576458         0.312516         1.809820
