19
Iteration:  2818
 O        -2.898928        -1.009037         1.562254
 C        -1.680293        -1.367403         0.890256
 C        -1.825231        -2.496321        -0.021986
 C        -1.832644        -1.074541        -0.595416
 O        -0.503076        -0.734696        -1.156237
 C         0.333086        -0.534223         0.054889
 C         1.351407         0.494973        -0.000048
 C         1.784223        -0.880634        -0.011082
 C        -0.427489        -0.831228         1.436498
 H        -3.186443        -1.808382         2.005739
 H        -1.067043        -3.238965        -0.015617
 H        -2.699478        -3.031491         0.182334
 H        -2.698998        -0.586574        -1.214655
 H         1.520121         1.011857        -0.959069
 H         1.498976         1.183628         0.798164
 H         2.202827        -1.298604        -0.903400
 H         2.174231        -1.233252         0.869307
 H         0.062781        -1.528738         2.086913
 H        -0.622209         0.111374         1.911943
