19
Iteration:  4884
 O        -2.817145        -0.839356         1.743492
 C        -1.853149        -1.435790         0.855840
 C        -2.113524        -2.511183        -0.161485
 C        -1.760024        -1.101200        -0.587667
 O        -0.351697        -1.093233        -0.973328
 C         0.396285        -0.640738         0.129102
 C         1.265022         0.761172        -0.067900
 C         1.951850        -0.661563        -0.071237
 C        -0.445019        -0.964976         1.317232
 H        -3.699623        -1.074866         1.382156
 H        -1.248049        -3.145462        -0.112602
 H        -3.028112        -3.078663        -0.269413
 H        -2.392935        -0.510836        -1.265252
 H         1.161419         1.137894        -0.994342
 H         1.561683         1.377888         0.809030
 H         2.224339        -1.025683        -1.030797
 H         2.506474        -0.998433         0.815124
 H         0.091251        -1.763066         1.912410
 H        -0.575273         0.050013         1.777343
