19
Iteration:  1943charge 0 multiplicity 1
 O        -3.039068        -0.988805         1.578266
 C        -1.820341        -1.411577         0.912946
 C        -1.907345        -2.593012         0.025172
 C        -1.707319        -1.190741        -0.589369
 O        -0.513837        -0.591273        -1.032891
 C         0.435884        -0.622654         0.072981
 C         1.409935         0.566082        -0.051135
 C         1.924051        -0.854208        -0.117542
 C        -0.463189        -0.819186         1.382433
 H        -3.208299        -1.718761         2.195350
 H        -1.159756        -3.267219         0.040030
 H        -2.826612        -2.904784        -0.357424
 H        -2.594885        -0.872973        -1.033614
 H         1.380674         1.064667        -1.034903
 H         1.695005         1.043626         0.793165
 H         2.332441        -0.938517        -1.099055
 H         2.556407        -1.383479         0.509021
 H         0.050526        -1.434766         2.065367
 H        -0.654648         0.206544         1.873265
