19
Iteration:  1114charge 0 multiplicity 1
 O        -2.837583        -0.859958         1.612165
 C        -1.752119        -1.310366         0.895371
 C        -2.075553        -2.504452        -0.070580
 C        -1.769768        -1.128333        -0.589104
 O        -0.330888        -0.988575        -1.095123
 C         0.492483        -0.703231         0.153401
 C         1.050444         0.697868        -0.016372
 C         1.900793        -0.586137        -0.145738
 C        -0.415501        -1.085673         1.410980
 H        -3.150279        -1.586157         2.197550
 H        -1.172733        -3.192255         0.019686
 H        -3.145741        -2.877022        -0.104648
 H        -2.482743        -0.475803        -1.102253
 H         0.791207         1.088415        -0.964790
 H         1.274687         1.327264         0.762541
 H         2.258598        -0.932901        -1.189785
 H         2.544027        -0.908721         0.656428
 H         0.074258        -1.894760         2.051037
 H        -0.268948        -0.126534         2.045737
