19
Iteration:  1372charge 0 multiplicity 1
 O        -2.816003        -0.676236         1.520374
 C        -1.765606        -1.374774         0.865726
 C        -2.052129        -2.543994        -0.000522
 C        -1.651796        -1.131762        -0.640285
 O        -0.350413        -1.016894        -1.113844
 C         0.389691        -0.617114         0.136983
 C         0.947577         0.716628         0.071782
 C         1.852034        -0.611134        -0.142162
 C        -0.286955        -1.245228         1.416514
 H        -2.910199        -1.017927         2.453044
 H        -1.234614        -3.245808        -0.183523
 H        -3.017890        -3.054996         0.166339
 H        -2.505154        -0.461530        -1.013223
 H         0.626045         1.368963        -0.698291
 H         1.276649         1.177537         1.008798
 H         2.181880        -0.841645        -1.104530
 H         2.456895        -0.744813         0.773656
 H         0.098368        -2.385855         1.592274
 H        -0.306555        -0.610201         2.296102
