19
Iteration:  3356
 O        -2.895826        -0.820397         1.578565
 C        -1.789778        -1.309745         0.834188
 C        -2.099656        -2.533843        -0.036225
 C        -1.662832        -1.033018        -0.629015
 O        -0.360682        -1.027379        -1.012868
 C         0.435346        -0.662026         0.127417
 C         1.085898         0.694386        -0.030131
 C         1.930887        -0.579017        -0.083838
 C        -0.377272        -1.178430         1.392261
 H        -2.966317        -1.526744         2.230102
 H        -1.388071        -3.359665        -0.113292
 H        -3.158404        -2.756711        -0.026563
 H        -2.350587        -0.451800        -1.324697
 H         0.773427         1.088080        -0.981604
 H         1.254968         1.396186         0.823380
 H         2.493566        -0.836011        -0.907381
 H         2.664323        -0.722998         0.761523
 H        -0.065236        -2.202872         1.672308
 H        -0.231948        -0.439963         2.219685
