19
Iteration:  4147charge 0 multiplicity 1
 O        -2.947001        -0.877191         1.541038
 C        -1.763611        -1.377900         0.877789
 C        -1.869669        -2.637430        -0.022386
 C        -1.705906        -1.213328        -0.610824
 O        -0.496693        -0.652388        -1.097302
 C         0.381842        -0.557826         0.201839
 C         1.340966         0.551637        -0.022458
 C         1.819306        -0.854489        -0.046728
 C        -0.446891        -0.876952         1.327611
 H        -3.216805        -1.541025         2.228752
 H        -1.044956        -3.401156        -0.070833
 H        -2.915676        -2.978618         0.090282
 H        -2.692296        -0.780191        -1.050337
 H         1.392949         1.090498        -0.988948
 H         1.670082         1.247794         0.820984
 H         2.213620        -1.281755        -0.921741
 H         2.346560        -1.406352         0.724346
 H         0.149914        -1.495525         2.036209
 H        -0.688156         0.027536         1.869366
