19
Iteration:   477
 O        -2.979143        -1.079710         1.598580
 C        -1.832388        -1.330434         0.890612
 C        -1.420413        -2.577343         0.057463
 C        -1.729260        -1.283245        -0.611885
 O        -0.634205        -0.444144        -0.989649
 C         0.281262        -0.451320         0.109666
 C         1.452577         0.437911        -0.247349
 C         1.648914        -1.053553        -0.057900
 C        -0.555207        -0.728366         1.378972
 H        -2.700125        -0.842141         2.499567
 H        -0.427195        -2.917107         0.042735
 H        -2.149129        -3.288105        -0.101289
 H        -2.395223        -1.241666        -1.481932
 H         1.516882         0.899999        -1.286776
 H         1.912376         1.115349         0.565346
 H         1.869820        -1.715270        -0.800017
 H         2.041784        -1.379336         0.951643
 H         0.039669        -1.293020         2.214359
 H        -0.866486         0.290682         1.719875
