19
Iteration:  2287
 O        -2.949834        -1.063209         1.513063
 C        -1.723601        -1.276649         0.849883
 C        -1.809080        -2.564756         0.088043
 C        -1.733619        -1.172514        -0.636061
 O        -0.569843        -0.555023        -1.076040
 C         0.318540        -0.457562         0.106718
 C         1.431906         0.550315        -0.028019
 C         1.702033        -1.037274        -0.066915
 C        -0.348563        -0.840258         1.399886
 H        -3.199087        -1.785431         2.088090
 H        -1.000941        -3.264513         0.096902
 H        -2.811492        -2.962381         0.139046
 H        -2.639584        -0.984151        -1.355964
 H         1.570638         1.104641        -0.865669
 H         1.777009         1.159427         0.829841
 H         1.981886        -1.414585        -0.979998
 H         2.150526        -1.270370         0.836912
 H         0.223803        -1.671306         1.911274
 H        -0.603494        -0.019918         2.040651
