19
Iteration:  1243charge 0 multiplicity 1
 O        -2.776752        -0.594563         1.607020
 C        -1.749620        -1.407357         0.879427
 C        -2.269441        -2.576944        -0.079737
 C        -1.732141        -1.295880        -0.675973
 O        -0.305195        -1.095895        -1.044780
 C         0.407621        -0.629766         0.169577
 C         0.990554         0.746892         0.089539
 C         1.906521        -0.383272        -0.104488
 C        -0.178610        -1.302062         1.327545
 H        -3.218200        -1.255274         2.140695
 H        -1.801794        -3.573079        -0.138511
 H        -3.446429        -2.552456         0.026755
 H        -2.204280        -0.518456        -1.386805
 H         0.717224         1.276928        -0.792474
 H         1.221639         1.344370         0.910844
 H         2.022728        -0.733989        -1.132668
 H         2.700358        -0.347352         0.595193
 H         0.102772        -2.299728         1.565951
 H        -0.079070        -0.710971         2.247197
