19
Iteration:  2644charge 0 multiplicity 1
 O        -2.981276        -1.283322         1.529949
 C        -1.708415        -1.286272         0.879789
 C        -1.416923        -2.509377        -0.052189
 C        -1.768886        -1.070407        -0.525482
 O        -0.648794        -0.462212        -1.091859
 C         0.262952        -0.378459         0.150834
 C         1.623073         0.272979        -0.112069
 C         1.554938        -1.256955        -0.035897
 C        -0.575412        -0.393437         1.436962
 H        -3.023641        -2.074176         2.133542
 H        -0.433451        -2.819187        -0.195791
 H        -2.197576        -3.263369        -0.097822
 H        -2.851284        -0.941121        -1.053288
 H         1.769092         0.703731        -1.046970
 H         2.116738         0.900169         0.710277
 H         1.624747        -1.685912        -0.965247
 H         1.859054        -1.663035         0.904477
 H        -0.177512        -0.959388         2.256735
 H        -1.077912         0.608008         1.739649
