19
Iteration:  4641
 O        -2.962172        -0.843082         1.535364
 C        -1.782109        -1.270668         0.854039
 C        -1.952264        -2.573536         0.127816
 C        -1.696661        -1.138171        -0.666498
 O        -0.353443        -0.782321        -1.174870
 C         0.451426        -0.658743         0.110894
 C         1.178971         0.606910         0.068424
 C         1.782020        -0.773059        -0.124038
 C        -0.410858        -1.040826         1.361891
 H        -2.764050        -1.197559         2.413563
 H        -1.280510        -3.377683         0.347639
 H        -2.940058        -3.002503         0.273010
 H        -2.398103        -0.927360        -1.305735
 H         1.065630         1.267597        -0.650020
 H         1.463865         1.049471         0.994011
 H         1.997810        -0.999317        -1.137643
 H         2.422279        -0.959607         0.778450
 H         0.018678        -1.903088         1.865631
 H        -0.192752        -0.356110         2.150612
