19
Iteration:  3887
 O        -2.996761        -1.200853         1.591500
 C        -1.786894        -1.216848         0.842286
 C        -1.534365        -2.532538        -0.023545
 C        -1.758267        -1.132267        -0.625689
 O        -0.567160        -0.545623        -1.001145
 C         0.307855        -0.535745         0.128411
 C         1.461178         0.404218        -0.058973
 C         1.696994        -1.124482        -0.042251
 C        -0.537160        -0.500343         1.366026
 H        -2.858966        -1.931404         2.195629
 H        -0.667670        -3.056304        -0.369883
 H        -2.503561        -3.037636        -0.027783
 H        -2.537759        -1.012656        -1.233673
 H         1.253398         0.864666        -1.111441
 H         2.042868         0.961076         0.694762
 H         2.114687        -1.610797        -0.945867
 H         2.144118        -1.633575         0.743269
 H        -0.182917        -1.073624         2.206154
 H        -0.792356         0.542476         1.672563
