19
Iteration:  2556
 O        -2.991175        -1.172768         1.479542
 C        -1.724530        -1.313931         0.902516
 C        -1.608388        -2.498358         0.019051
 C        -1.706752        -1.148013        -0.547994
 O        -0.603639        -0.450413        -1.002231
 C         0.289290        -0.565196         0.097956
 C         1.421981         0.319369        -0.007364
 C         1.679860        -1.068033        -0.152284
 C        -0.453300        -0.563319         1.369917
 H        -3.079127        -1.778965         2.264033
 H        -0.639701        -2.995475         0.074498
 H        -2.376718        -3.215485        -0.082889
 H        -2.595332        -0.789057        -1.024985
 H         1.481418         0.927694        -0.928765
 H         1.721168         0.781956         0.912168
 H         1.944517        -1.414702        -1.152053
 H         2.202609        -1.568683         0.644876
 H         0.132439        -1.013488         2.183017
 H        -0.870807         0.498312         1.589844
