19
Iteration:  1210
 O        -2.728091        -0.629621         1.549828
 C        -1.735398        -1.368575         0.835854
 C        -2.001379        -2.521105        -0.024827
 C        -1.770376        -1.175856        -0.614860
 O        -0.384943        -1.104371        -1.077501
 C         0.339210        -0.691633         0.037735
 C         0.940486         0.703715         0.152703
 C         1.841267        -0.487040        -0.053957
 C        -0.295740        -1.272403         1.319261
 H        -2.683529        -0.765240         2.506241
 H        -1.150438        -3.191161        -0.218561
 H        -3.049297        -2.960674         0.177160
 H        -2.435461        -0.466408        -1.289972
 H         0.985762         1.374770        -0.700406
 H         0.879122         1.221480         1.071442
 H         2.300769        -0.611190        -1.066188
 H         2.552689        -0.812333         0.633179
 H        -0.045979        -2.277781         1.619365
 H        -0.168222        -0.613355         2.182745
