19
Iteration:  2530charge 0 multiplicity 1
 O        -3.024464        -1.038583         1.638954
 C        -1.812161        -1.358783         0.828699
 C        -1.669560        -2.601633        -0.046555
 C        -1.736697        -1.194113        -0.589027
 O        -0.623167        -0.524051        -1.048553
 C         0.375658        -0.440036         0.123984
 C         1.547305         0.518694        -0.095638
 C         1.737127        -1.032358        -0.075953
 C        -0.480554        -0.741082         1.414956
 H        -3.340825        -1.857977         2.096734
 H        -0.746924        -3.200695        -0.072680
 H        -2.552977        -3.306685        -0.143196
 H        -2.601894        -0.817670        -1.137686
 H         1.614237         0.942702        -1.099618
 H         2.076916         1.077230         0.714242
 H         2.176531        -1.321460        -1.079918
 H         2.225298        -1.500908         0.847320
 H        -0.026008        -1.516022         2.087857
 H        -0.815710         0.113476         1.917367
