19
Iteration:   669
 O        -2.927838        -0.921399         1.562280
 C        -1.750744        -1.414884         0.882703
 C        -1.650233        -2.649649         0.037923
 C        -1.755932        -1.265844        -0.585877
 O        -0.625948        -0.545282        -1.123992
 C         0.333735        -0.492267         0.049014
 C         1.453640         0.596973         0.079641
 C         1.687099        -0.956871        -0.134598
 C        -0.486370        -0.845451         1.351045
 H        -2.782249        -1.096002         2.494450
 H        -0.705270        -3.243226         0.247942
 H        -2.387763        -3.401847         0.011556
 H        -2.698771        -1.078134        -1.124445
 H         1.516006         1.098280        -0.881972
 H         1.705085         1.036121         0.953836
 H         1.992900        -1.175982        -1.132622
 H         2.063625        -1.513351         0.699468
 H         0.135657        -1.499666         1.936283
 H        -0.772026         0.091890         1.917865
