19
Iteration:   850
 O        -2.924872        -0.769289         1.509045
 C        -1.811305        -1.379874         0.909269
 C        -1.927605        -2.633074        -0.000513
 C        -1.712811        -1.281667        -0.553403
 O        -0.468345        -0.875638        -1.022319
 C         0.396468        -0.541991         0.114495
 C         1.266401         0.648250         0.141856
 C         1.852009        -0.643637        -0.296632
 C        -0.369315        -1.014621         1.360841
 H        -3.005494        -1.475484         2.217911
 H        -1.073908        -3.358633         0.023298
 H        -2.945311        -3.011989        -0.190381
 H        -2.467679        -0.819150        -1.101855
 H         1.181839         1.492400        -0.650978
 H         1.412352         1.015071         1.209164
 H         2.017635        -0.706229        -1.422737
 H         2.549670        -1.213777         0.249893
 H         0.040706        -1.876815         2.000850
 H        -0.554691        -0.159275         2.065286
