19
Iteration:  3462charge 0 multiplicity 1
 O        -2.737896        -0.613673         1.645316
 C        -1.770454        -1.370008         0.839450
 C        -2.123523        -2.547933        -0.117417
 C        -1.745605        -1.168487        -0.688093
 O        -0.312181        -1.081547        -1.070254
 C         0.426169        -0.695976         0.155477
 C         0.936668         0.699036         0.087730
 C         1.892254        -0.474701        -0.033651
 C        -0.316681        -1.273709         1.293934
 H        -2.871543        -1.199015         2.393594
 H        -1.533159        -3.447812        -0.236228
 H        -3.174131        -2.657457        -0.018473
 H        -2.452751        -0.499782        -1.279400
 H         0.765177         1.172460        -0.837072
 H         1.023633         1.367478         0.939949
 H         2.266603        -0.650949        -0.969706
 H         2.495358        -0.560238         0.879658
 H         0.098369        -2.256754         1.530770
 H        -0.202194        -0.760279         2.245306
