19
Iteration:  2645charge 0 multiplicity 1
 O        -2.987005        -1.287355         1.533495
 C        -1.705711        -1.287851         0.889739
 C        -1.429021        -2.502088        -0.049723
 C        -1.761280        -1.070791        -0.525089
 O        -0.643201        -0.465037        -1.097915
 C         0.264984        -0.375028         0.145043
 C         1.629376         0.275669        -0.112665
 C         1.563507        -1.255920        -0.031305
 C        -0.582864        -0.397803         1.442134
 H        -3.038374        -2.068217         2.143543
 H        -0.436462        -2.802539        -0.237828
 H        -2.183504        -3.274591        -0.097000
 H        -2.845318        -0.955030        -1.074168
 H         1.761550         0.744267        -1.075408
 H         2.095757         0.897632         0.683802
 H         1.594153        -1.677072        -0.975015
 H         1.842604        -1.701532         0.880125
 H        -0.194026        -0.976125         2.252301
 H        -1.077302         0.631060         1.732179
