19
Iteration:  1804charge 0 multiplicity 1
 O        -2.954713        -1.259785         1.575693
 C        -1.801285        -1.282276         0.872054
 C        -1.455910        -2.549197         0.005325
 C        -1.755940        -1.134421        -0.636295
 O        -0.621326        -0.390791        -1.073937
 C         0.293472        -0.462315         0.146208
 C         1.610100         0.283247        -0.149611
 C         1.580999        -1.172593         0.002292
 C        -0.603014        -0.439222         1.421533
 H        -2.925773        -2.054882         2.175625
 H        -0.505184        -2.659293        -0.243325
 H        -2.160386        -3.298176        -0.062542
 H        -2.674476        -0.779259        -1.028246
 H         1.461286         0.556929        -1.151428
 H         2.106533         1.062348         0.433976
 H         1.679145        -1.782689        -0.822520
 H         1.986737        -1.638047         0.937876
 H        -0.119905        -0.998377         2.201515
 H        -0.871154         0.496737         1.892575
