19
Iteration:   151
 O        -2.954934        -0.973587         1.657438
 C        -1.724090        -1.313393         0.908477
 C        -1.570962        -2.684923         0.034233
 C        -1.756145        -1.293970        -0.570781
 O        -0.643714        -0.613719        -1.158918
 C         0.310591        -0.489700        -0.037919
 C         1.404993         0.546199         0.071288
 C         1.721911        -0.979697        -0.124760
 C        -0.441771        -0.636090         1.363365
 H        -3.360507        -1.838543         1.748468
 H        -0.644119        -3.082725         0.208374
 H        -2.335426        -3.357751        -0.109904
 H        -2.722076        -1.076981        -1.033054
 H         1.711613         1.125678        -0.811878
 H         1.411733         0.993254         1.058516
 H         2.081701        -1.269633        -1.028635
 H         2.010827        -1.715992         0.673851
 H         0.134511        -1.092769         2.091357
 H        -0.859426         0.346056         1.797584
