19
Iteration:  3197charge 0 multiplicity 1
 O        -2.880756        -0.890068         1.634326
 C        -1.816287        -1.364267         0.879656
 C        -1.903961        -2.512333        -0.042446
 C        -1.751499        -1.213740        -0.682024
 O        -0.427050        -0.804278        -1.072254
 C         0.392474        -0.570350         0.128389
 C         1.266303         0.594102         0.005707
 C         1.879312        -0.797541        -0.092922
 C        -0.496494        -0.942147         1.352575
 H        -2.874455        -1.567785         2.305262
 H        -0.950422        -3.007560        -0.269070
 H        -2.921696        -2.854283         0.060499
 H        -2.615295        -0.690714        -1.117253
 H         1.290510         1.198864        -0.906324
 H         1.466647         1.347173         0.777867
 H         2.136748        -1.242531        -1.019448
 H         2.439613        -0.958765         0.874617
 H        -0.007502        -1.817164         1.881014
 H        -0.687235        -0.217344         2.130346
