19
Iteration:  4298charge 0 multiplicity 1
 O        -2.954430        -1.075440         1.467025
 C        -1.774360        -1.364240         0.849954
 C        -1.497771        -2.558270         0.082709
 C        -1.704059        -1.214642        -0.592745
 O        -0.601394        -0.443805        -1.007516
 C         0.277649        -0.542707         0.082346
 C         1.527131         0.444177         0.044421
 C         1.603909        -1.173619        -0.090735
 C        -0.580506        -0.574866         1.324831
 H        -2.894514        -1.326262         2.432068
 H        -0.559563        -3.106262        -0.061375
 H        -2.444484        -3.137639        -0.084537
 H        -2.613928        -0.940906        -1.166977
 H         1.463634         1.140821        -0.873258
 H         1.857905         0.819420         0.954666
 H         1.881686        -1.421245        -1.144556
 H         2.094126        -1.768192         0.705914
 H        -0.093386        -1.169714         2.162879
 H        -0.839767         0.440201         1.611312
