19
Iteration:  4282
 O        -3.055285        -1.009086         1.470403
 C        -1.798223        -1.264816         0.856782
 C        -1.506404        -2.634097         0.068006
 C        -1.730612        -1.168844        -0.643114
 O        -0.580311        -0.444813        -1.001161
 C         0.330992        -0.499840         0.129154
 C         1.405087         0.351844        -0.007432
 C         1.725189        -1.061669        -0.166846
 C        -0.505351        -0.749007         1.413341
 H        -3.029835        -1.370585         2.400019
 H        -0.505468        -2.844338         0.409498
 H        -2.130898        -3.482386        -0.045282
 H        -2.561467        -1.051315        -1.336482
 H         1.605640         0.895108        -0.867179
 H         1.746815         0.941741         0.923949
 H         1.772331        -1.524331        -1.124417
 H         2.216191        -1.524553         0.697180
 H         0.029214        -1.297792         2.158384
 H        -0.843027         0.255012         1.772378
