19
Iteration:  2502charge 0 multiplicity 1
 O        -2.897689        -1.011587         1.677471
 C        -1.786880        -1.327857         0.794791
 C        -1.775387        -2.568230         0.006883
 C        -1.691132        -1.168911        -0.675961
 O        -0.484863        -0.606801        -1.051209
 C         0.376372        -0.447849         0.138417
 C         1.350932         0.590068        -0.069651
 C         1.671717        -1.048253        -0.024056
 C        -0.464963        -0.834732         1.334291
 H        -3.140912        -1.803837         2.225580
 H        -0.931238        -3.268811        -0.061246
 H        -2.746901        -2.994394        -0.045558
 H        -2.438395        -0.858643        -1.413337
 H         1.359926         1.257518        -1.017307
 H         1.769365         1.016443         0.771235
 H         1.887004        -1.484513        -1.007181
 H         2.147334        -1.290468         0.871487
 H        -0.000456        -1.655095         1.878899
 H        -0.762799         0.059882         2.022957
