19
Iteration:  1267
 O        -2.681471        -0.663989         1.662872
 C        -1.799263        -1.372055         0.807365
 C        -2.164492        -2.486178        -0.010559
 C        -1.646340        -1.137583        -0.595606
 O        -0.292240        -1.157979        -1.019057
 C         0.423103        -0.709722         0.087889
 C         0.891862         0.728106         0.031434
 C         1.925010        -0.373878        -0.152055
 C        -0.352395        -1.333484         1.335161
 H        -3.442292        -1.297300         1.738496
 H        -1.517264        -3.403232         0.156962
 H        -3.221183        -2.527388        -0.455315
 H        -2.215109        -0.414030        -1.097901
 H         0.629999         1.144056        -0.896412
 H         0.869884         1.386717         0.873939
 H         2.365595        -0.517950        -1.114390
 H         2.551033        -0.578601         0.818464
 H        -0.176128        -2.334033         1.632987
 H        -0.387032        -0.690136         2.303011
