19
Iteration:  1140charge 0 multiplicity 1
 O        -2.860317        -0.770975         1.590782
 C        -1.729518        -1.372596         0.937503
 C        -2.076134        -2.573155        -0.104775
 C        -1.777391        -1.217519        -0.590465
 O        -0.374312        -1.062731        -0.941803
 C         0.388218        -0.554220         0.091916
 C         1.177722         0.766761        -0.044804
 C         1.809036        -0.550593        -0.146218
 C        -0.290422        -1.108865         1.362016
 H        -3.587660        -1.405384         1.722675
 H        -1.441407        -3.397484        -0.198077
 H        -3.135981        -2.694325        -0.091546
 H        -2.392529        -0.582898        -1.200614
 H         1.261406         1.532389        -0.849397
 H         1.439871         1.132399         1.013330
 H         2.232073        -0.880363        -1.076086
 H         2.403648        -0.886384         0.775036
 H         0.181350        -2.131231         1.456384
 H        -0.031137        -0.621348         2.307764
