19
Iteration:  3862
 O        -2.910920        -1.130486         1.621645
 C        -1.800360        -1.402810         0.887225
 C        -1.791060        -2.567032        -0.019760
 C        -1.719074        -1.135464        -0.652138
 O        -0.469954        -0.636718        -1.067305
 C         0.275363        -0.413127         0.049247
 C         1.610397         0.496013        -0.103400
 C         1.607701        -0.968609         0.031909
 C        -0.498234        -0.636580         1.385879
 H        -3.255482        -1.968503         1.973044
 H        -0.851708        -3.168143        -0.145786
 H        -2.680164        -3.160919        -0.082495
 H        -2.706420        -0.558717        -1.042976
 H         1.532213         1.009824        -1.088870
 H         1.814440         1.114893         0.758177
 H         1.961111        -1.591925        -0.756915
 H         2.140625        -1.558797         0.900828
 H         0.071323        -1.150588         2.203216
 H        -0.958187         0.250265         1.764193
