19
Iteration:  3035
 O        -2.904249        -1.245318         1.603634
 C        -1.833555        -1.360567         0.846823
 C        -1.425610        -2.538777        -0.007884
 C        -1.745383        -1.135127        -0.705740
 O        -0.546515        -0.383760        -1.006052
 C         0.285758        -0.373307         0.200213
 C         1.620349         0.261920        -0.118633
 C         1.483750        -1.202090        -0.028514
 C        -0.618446        -0.394951         1.388824
 H        -2.862942        -2.084798         2.166294
 H        -0.514449        -3.061932         0.111953
 H        -2.295335        -3.205640        -0.006829
 H        -2.526865        -0.952203        -1.389817
 H         1.686398         0.783678        -1.151064
 H         2.093337         0.850918         0.600304
 H         1.254924        -1.581088        -1.056917
 H         1.758952        -2.047688         0.507258
 H        -0.270451        -0.824302         2.396399
 H        -1.125094         0.521716         1.664594
