19
Iteration:   212
 O        -3.027969        -0.933763         1.597683
 C        -1.792706        -1.382969         0.895755
 C        -1.742089        -2.591876         0.038824
 C        -1.707838        -1.221126        -0.572359
 O        -0.420073        -0.726212        -0.993652
 C         0.317410        -0.494909         0.145036
 C         1.307245         0.603126        -0.162346
 C         1.791803        -0.824307        -0.171494
 C        -0.480737        -0.895031         1.358205
 H        -2.908191        -1.344411         2.456521
 H        -0.749908        -3.186796        -0.015519
 H        -2.641823        -3.228510        -0.050260
 H        -2.507272        -0.784495        -1.143085
 H         1.180066         1.168759        -1.055844
 H         1.813583         1.222732         0.554640
 H         1.863621        -1.393584        -1.105028
 H         2.502364        -1.035123         0.655439
 H         0.129710        -1.703431         1.957637
 H        -0.647762        -0.061111         2.003290
