19
Iteration:  2249charge 0 multiplicity 1
 O        -2.984650        -1.035721         1.593550
 C        -1.835365        -1.396172         0.870066
 C        -1.568319        -2.585732        -0.023472
 C        -1.807387        -1.132238        -0.609547
 O        -0.584347        -0.492145        -1.068687
 C         0.356122        -0.511932         0.159641
 C         1.506063         0.406431         0.045857
 C         1.770824        -1.065067        -0.226776
 C        -0.598229        -0.680400         1.411265
 H        -2.854761        -1.463143         2.452230
 H        -0.526315        -2.942645         0.136659
 H        -2.369302        -3.383803        -0.088787
 H        -2.619462        -0.994070        -1.259500
 H         1.499900         1.077261        -0.928128
 H         1.878948         0.719934         1.000647
 H         1.891547        -1.617132        -1.230463
 H         2.627812        -1.422702         0.433557
 H        -0.176465        -0.928705         2.332046
 H        -0.954053         0.394998         1.529241
