19
Iteration:  1984
 O        -2.827594        -0.934707         1.749415
 C        -1.798275        -1.270006         0.856367
 C        -1.740462        -2.528417        -0.164604
 C        -1.768027        -1.167781        -0.644562
 O        -0.499099        -0.846858        -1.117313
 C         0.249241        -0.473755         0.050279
 C         1.382482         0.589739         0.036780
 C         1.665583        -0.927415        -0.000526
 C        -0.451859        -0.850950         1.365867
 H        -3.130583        -1.704140         2.241960
 H        -0.766795        -2.990395        -0.291695
 H        -2.544077        -3.251152        -0.391073
 H        -2.476503        -0.681435        -1.219838
 H         1.620755         1.080147        -0.870895
 H         1.533305         1.125281         0.926365
 H         2.021608        -1.202420        -0.935363
 H         2.160160        -1.274437         0.886715
 H         0.116493        -1.665372         1.872870
 H        -0.586295         0.020880         1.974713
