19
Iteration:  3935charge 0 multiplicity 1
 O        -3.002396        -1.164101         1.463071
 C        -1.715995        -1.336973         0.900905
 C        -1.415522        -2.611905         0.050201
 C        -1.621957        -1.316433        -0.629522
 O        -0.667152        -0.319755        -1.008747
 C         0.266231        -0.339343         0.102751
 C         1.644376         0.293106        -0.020586
 C         1.378270        -1.145577        -0.135284
 C        -0.554945        -0.471256         1.391225
 H        -2.709342        -1.437231         2.383002
 H        -0.439197        -3.139395         0.279810
 H        -2.232901        -3.341289        -0.003696
 H        -2.661816        -1.228367        -1.245344
 H         1.915579         0.819169        -0.890475
 H         1.953774         0.741903         0.936017
 H         1.536885        -1.704693        -1.021860
 H         1.576360        -1.893279         0.716484
 H        -0.022304        -1.063995         2.182048
 H        -0.790950         0.550907         1.772075
