19
Iteration:   825
 O        -2.883103        -0.833867         1.546150
 C        -1.766704        -1.301959         0.893702
 C        -1.850752        -2.590503         0.029509
 C        -1.713198        -1.240258        -0.650258
 O        -0.434019        -0.772171        -1.105158
 C         0.337775        -0.571944         0.142669
 C         1.152141         0.653071         0.076086
 C         1.716682        -0.762817        -0.139052
 C        -0.341391        -1.082680         1.346062
 H        -2.712350        -1.035427         2.492943
 H        -0.888567        -3.093293        -0.047776
 H        -2.749431        -3.168620         0.044579
 H        -2.489591        -0.758159        -1.287745
 H         0.947796         1.230233        -0.848704
 H         1.568456         1.254912         1.022775
 H         2.011954        -1.082447        -1.127335
 H         2.427269        -1.115730         0.679690
 H         0.079889        -2.042383         1.800153
 H        -0.350100        -0.318786         2.126027
