19
Iteration:  4770
 O        -2.839604        -0.753453         1.494977
 C        -1.720800        -1.323302         0.848520
 C        -1.996228        -2.581101         0.021841
 C        -1.733093        -1.272111        -0.708069
 O        -0.433604        -0.874841        -1.072708
 C         0.361201        -0.544832         0.131775
 C         1.177637         0.642061         0.141646
 C         1.766093        -0.749093        -0.087604
 C        -0.277735        -1.021482         1.373588
 H        -3.180342        -1.424046         2.096179
 H        -1.286510        -3.375285         0.142328
 H        -3.049603        -2.800325         0.067102
 H        -2.472743        -0.705606        -1.106861
 H         0.972536         1.180214        -0.759514
 H         1.494564         1.023700         1.117555
 H         1.959748        -1.031713        -1.137372
 H         2.504963        -1.132847         0.554022
 H         0.225476        -1.859791         1.906430
 H        -0.526477        -0.213521         1.998145
