19
Iteration:  3264
 O        -2.920233        -0.752884         1.526711
 C        -1.798538        -1.241890         0.918127
 C        -1.891865        -2.562508         0.094461
 C        -1.750955        -1.235716        -0.728171
 O        -0.479112        -0.898945        -1.032122
 C         0.406893        -0.619980         0.102510
 C         1.193979         0.684760         0.170740
 C         1.828679        -0.692632        -0.164466
 C        -0.309466        -1.143823         1.290941
 H        -3.386434        -1.365459         2.180512
 H        -0.937310        -3.091983        -0.097421
 H        -2.889429        -2.965177        -0.110167
 H        -2.487655        -0.865969        -1.458491
 H         1.344766         1.394060        -0.608556
 H         1.371073         1.176511         1.185152
 H         2.136688        -0.943491        -1.194272
 H         2.497743        -1.230050         0.551244
 H         0.102369        -2.140292         1.655272
 H        -0.319317        -0.387453         2.074279
