19
Iteration:  4213charge 0 multiplicity 1
 O        -2.906407        -0.966312         1.573631
 C        -1.791912        -1.344350         0.872315
 C        -1.803571        -2.537519        -0.094361
 C        -1.723330        -1.179894        -0.611381
 O        -0.512898        -0.735126        -0.999098
 C         0.347227        -0.565479         0.031927
 C         1.345889         0.504470         0.015111
 C         1.831229        -0.887688        -0.019492
 C        -0.492544        -0.751660         1.352554
 H        -2.966748        -1.640997         2.263805
 H        -1.008183        -3.301089        -0.134207
 H        -2.854832        -2.928274        -0.036596
 H        -2.626469        -0.908579        -1.216761
 H         1.530680         1.214672        -0.920949
 H         1.651027         1.045017         0.887611
 H         2.057033        -1.313147        -0.999715
 H         2.278681        -1.388800         0.823159
 H         0.036644        -1.261110         2.212120
 H        -0.756755         0.258608         1.668214
