19
Iteration:   690
 O        -2.900331        -0.915484         1.526540
 C        -1.728605        -1.370681         0.892791
 C        -1.789413        -2.723031         0.072814
 C        -1.795352        -1.334582        -0.577164
 O        -0.569447        -0.547914        -1.023470
 C         0.291847        -0.371243         0.025466
 C         1.398120         0.582582        -0.009208
 C         1.732699        -0.934840        -0.086651
 C        -0.350345        -0.810015         1.340947
 H        -3.121262        -1.755524         2.005331
 H        -0.955468        -3.502549         0.176933
 H        -2.777797        -3.028617        -0.229123
 H        -2.589602        -1.073552        -1.295020
 H         1.562990         1.155685        -0.879216
 H         1.588503         0.963380         0.881599
 H         2.063614        -1.219653        -1.053410
 H         2.135450        -1.313861         0.859181
 H         0.233585        -1.615741         1.617531
 H        -0.545446        -0.232228         2.258797
