19
Iteration:  3271charge 0 multiplicity 1
 O        -2.932269        -0.731922         1.579405
 C        -1.789556        -1.288974         0.891519
 C        -1.893930        -2.512074         0.051963
 C        -1.736200        -1.273178        -0.685310
 O        -0.415539        -0.890253        -1.017629
 C         0.383969        -0.615805         0.052171
 C         1.166943         0.655993         0.150753
 C         1.889386        -0.690194        -0.157632
 C        -0.380643        -1.116866         1.257156
 H        -3.274308        -1.453571         2.146629
 H        -1.025314        -3.258594         0.026892
 H        -2.885850        -3.022849        -0.037148
 H        -2.454865        -0.711875        -1.363125
 H         1.112849         1.473459        -0.624145
 H         1.307362         1.047715         1.199853
 H         2.088516        -0.862759        -1.185180
 H         2.392329        -1.314441         0.702564
 H         0.020827        -2.038690         1.658270
 H        -0.205248        -0.399164         2.058373
