19
Iteration:  2579charge 0 multiplicity 1
 O        -2.991144        -1.212346         1.580517
 C        -1.788237        -1.276814         0.837516
 C        -1.474197        -2.512006         0.027315
 C        -1.790056        -1.217740        -0.613486
 O        -0.584824        -0.433183        -1.035148
 C         0.348579        -0.402390         0.130431
 C         1.599771         0.397402         0.021636
 C         1.569699        -1.207034        -0.202127
 C        -0.583759        -0.535736         1.394309
 H        -2.907377        -1.564645         2.468059
 H        -0.545890        -2.972128        -0.209932
 H        -2.180845        -3.313312         0.056153
 H        -2.662038        -1.065266        -1.426006
 H         1.803474         0.986943        -0.796077
 H         1.865806         0.831876         1.049499
 H         1.506513        -1.657053        -1.127129
 H         1.960634        -1.851414         0.542010
 H        -0.091458        -1.162520         2.114878
 H        -0.932545         0.563397         1.755204
