19
Iteration:  2114
 O        -3.009684        -1.210339         1.615005
 C        -1.784239        -1.346031         0.882598
 C        -1.596285        -2.632287         0.017023
 C        -1.792707        -1.195168        -0.591892
 O        -0.645160        -0.394397        -1.087178
 C         0.340188        -0.343071         0.014099
 C         1.662548         0.408829         0.029311
 C         1.620323        -1.149002        -0.068032
 C        -0.524359        -0.534685         1.297165
 H        -2.822381        -1.722701         2.450801
 H        -0.668736        -3.170789        -0.029423
 H        -2.529507        -3.119498        -0.122656
 H        -2.603169        -1.214308        -1.315271
 H         1.977416         1.018454        -0.808727
 H         1.969556         0.854799         0.881979
 H         2.149366        -1.682730        -0.874211
 H         1.886743        -1.592374         0.805528
 H         0.057311        -1.082810         2.102082
 H        -0.868641         0.302362         1.797575
