19
Iteration:  2185charge 0 multiplicity 1
 O        -2.974738        -1.235758         1.615420
 C        -1.833827        -1.339476         0.832319
 C        -1.478811        -2.601193        -0.010704
 C        -1.768861        -1.197954        -0.603085
 O        -0.654849        -0.333773        -0.957475
 C         0.292256        -0.256738         0.088801
 C         1.739681         0.300065        -0.164141
 C         1.520980        -1.196946         0.011016
 C        -0.566873        -0.502085         1.350287
 H        -3.185296        -2.118941         2.011680
 H        -0.403070        -2.891107         0.016407
 H        -2.310191        -3.333716        -0.261913
 H        -2.534204        -1.155079        -1.296872
 H         1.963898         0.769269        -1.233220
 H         2.283040         0.930026         0.572341
 H         1.735155        -1.824715        -0.910110
 H         1.923005        -1.858644         0.884958
 H        -0.096050        -0.952827         2.195089
 H        -0.979929         0.502006         1.746890
