19
Iteration:  4432
 O        -3.008149        -1.074880         1.483330
 C        -1.787275        -1.344289         0.849530
 C        -1.504194        -2.580618         0.123824
 C        -1.695890        -1.235475        -0.648013
 O        -0.597751        -0.417560        -1.035409
 C         0.303272        -0.553818         0.097853
 C         1.495587         0.373560         0.091018
 C         1.610582        -1.109538        -0.190957
 C        -0.541475        -0.550749         1.350578
 H        -2.946947        -1.351068         2.436058
 H        -0.502418        -2.970378         0.176417
 H        -2.290140        -3.324946         0.039380
 H        -2.666967        -1.089996        -1.221518
 H         1.542461         0.909808        -0.844001
 H         1.837766         0.776981         1.135414
 H         1.872761        -1.448965        -1.157920
 H         2.124695        -1.693346         0.525487
 H         0.031469        -0.965808         2.213038
 H        -0.697095         0.462160         1.738820
