19
Iteration:  2253
 O        -2.997278        -1.037585         1.603729
 C        -1.853589        -1.389214         0.869397
 C        -1.625618        -2.614003        -0.008278
 C        -1.780711        -1.144646        -0.597903
 O        -0.579597        -0.505514        -1.080636
 C         0.371428        -0.469990         0.159270
 C         1.525559         0.437702         0.031637
 C         1.783616        -1.075281        -0.228464
 C        -0.584118        -0.689793         1.400587
 H        -2.920354        -1.467028         2.481610
 H        -0.581900        -2.890906         0.092104
 H        -2.376735        -3.332729        -0.252766
 H        -2.617801        -1.070511        -1.305669
 H         1.585503         1.029031        -0.831907
 H         1.886080         0.832044         1.013941
 H         1.913545        -1.543355        -1.161218
 H         2.584850        -1.419618         0.356450
 H        -0.079694        -0.996947         2.362255
 H        -1.023809         0.304849         1.660183
