19
Iteration:  1154
 O        -2.761715        -0.748816         1.595801
 C        -1.795422        -1.326440         0.809784
 C        -2.154708        -2.579940         0.014156
 C        -1.713199        -1.232961        -0.627193
 O        -0.405542        -1.077592        -1.044986
 C         0.360799        -0.500914         0.137652
 C         1.177488         0.842795         0.067010
 C         1.867704        -0.599915        -0.109769
 C        -0.274341        -1.189912         1.344433
 H        -3.382504        -1.455358         1.788971
 H        -1.366443        -3.359591        -0.078740
 H        -3.118030        -2.999211        -0.055406
 H        -2.605073        -0.695447        -1.119873
 H         0.886144         1.347773        -0.865283
 H         1.397531         1.547868         0.927035
 H         2.098953        -1.024165        -1.040056
 H         2.499667        -0.910861         0.661542
 H         0.108246        -2.171176         1.422163
 H        -0.262763        -0.603149         2.217495
