19
Iteration:  4607
 O        -2.893065        -0.644552         1.495870
 C        -1.836784        -1.411654         0.881111
 C        -1.871961        -2.736523        -0.091979
 C        -1.777181        -1.250588        -0.570439
 O        -0.518651        -0.808764        -0.996119
 C         0.369363        -0.621134         0.145652
 C         1.342041         0.665811         0.086422
 C         1.854119        -0.747695        -0.184096
 C        -0.351138        -0.997217         1.408612
 H        -3.502454        -1.071889         2.145072
 H        -0.884917        -3.172677        -0.018619
 H        -2.759961        -3.330400        -0.064097
 H        -2.597582        -0.812794        -1.125662
 H         1.373647         1.246041        -0.842848
 H         1.434837         1.247775         0.999580
 H         2.103169        -0.840706        -1.220044
 H         2.573006        -1.236473         0.449295
 H        -0.134421        -1.972567         1.814270
 H        -0.569048        -0.204247         2.064226
