19
Iteration:  4652charge 0 multiplicity 1
 O        -2.963046        -0.873453         1.583112
 C        -1.832967        -1.264330         0.845051
 C        -1.994894        -2.538317         0.096561
 C        -1.724125        -1.194112        -0.670149
 O        -0.386496        -0.836751        -1.131119
 C         0.361741        -0.626446         0.071351
 C         1.221137         0.640263         0.060039
 C         1.950793        -0.738972        -0.077891
 C        -0.379674        -1.031466         1.353560
 H        -2.855416        -1.176375         2.523941
 H        -1.168878        -3.217195         0.099431
 H        -3.028223        -2.872996         0.017492
 H        -2.465622        -0.819928        -1.237337
 H         1.146849         1.123563        -0.822232
 H         1.351215         1.214736         0.961809
 H         2.332137        -1.005213        -1.052830
 H         2.572960        -1.284929         0.664067
 H         0.053684        -1.959253         1.733170
 H        -0.382566        -0.191106         2.033137
