19
Iteration:  3189charge 0 multiplicity 1
 O        -2.914607        -0.951318         1.648640
 C        -1.788024        -1.321669         0.863214
 C        -1.851228        -2.484512         0.006305
 C        -1.787228        -1.095648        -0.645872
 O        -0.430014        -0.849309        -1.074119
 C         0.348880        -0.546341         0.094155
 C         1.275662         0.661519        -0.046964
 C         1.809928        -0.858074        -0.008853
 C        -0.445856        -0.964291         1.318569
 H        -3.073444        -1.609331         2.321430
 H        -1.043759        -3.260969        -0.164574
 H        -2.799845        -3.023437        -0.189842
 H        -2.453864        -0.739260        -1.446783
 H         1.282034         1.175669        -0.976601
 H         1.616865         1.067348         0.964927
 H         2.230084        -1.141233        -0.955895
 H         2.544979        -1.088702         0.811370
 H         0.103614        -1.801400         1.829412
 H        -0.453477        -0.052347         1.949697
