19
Iteration:  4779charge 0 multiplicity 1
 O        -2.758922        -0.752777         1.418690
 C        -1.701365        -1.413698         0.861032
 C        -2.007589        -2.570229         0.060201
 C        -1.727084        -1.251474        -0.683630
 O        -0.450461        -0.807384        -1.112695
 C         0.317232        -0.581059         0.164271
 C         1.168343         0.630958         0.111640
 C         1.801895        -0.754220        -0.100914
 C        -0.380187        -1.051114         1.422796
 H        -2.939432        -1.201830         2.258548
 H        -1.423068        -3.448731         0.089763
 H        -3.044014        -2.758367         0.230537
 H        -2.552923        -0.856656        -1.172651
 H         1.132009         1.356559        -0.617902
 H         1.419679         1.327980         0.978473
 H         2.059830        -1.059934        -1.046083
 H         2.441685        -1.052362         0.676993
 H         0.109265        -1.826699         1.906428
 H        -0.313481        -0.220786         2.064726
