19
Iteration:  1817
 O        -2.914749        -1.260941         1.566431
 C        -1.692348        -1.243597         0.837506
 C        -1.498266        -2.444157        -0.029149
 C        -1.781969        -1.108345        -0.656442
 O        -0.553570        -0.502214        -1.002781
 C         0.267142        -0.391381         0.167772
 C         1.426459         0.356361        -0.138236
 C         1.537218        -1.254238         0.000215
 C        -0.541689        -0.485769         1.417115
 H        -2.931170        -2.049166         2.106117
 H        -0.589457        -3.046021        -0.036718
 H        -2.305339        -3.170371         0.121097
 H        -2.582932        -0.924828        -1.295115
 H         1.597643         0.698189        -1.203381
 H         1.905066         0.906172         0.662057
 H         1.751146        -1.735870        -0.984110
 H         2.149748        -1.651941         0.829670
 H        -0.004119        -1.032185         2.240801
 H        -0.913882         0.486085         1.658063
