19
Iteration:  2285charge 0 multiplicity 1
 O        -2.966547        -1.066328         1.522596
 C        -1.729108        -1.275250         0.852350
 C        -1.800788        -2.573053         0.068671
 C        -1.732691        -1.178752        -0.646156
 O        -0.565240        -0.554104        -1.059965
 C         0.319241        -0.458211         0.105788
 C         1.450982         0.546595        -0.020075
 C         1.683248        -1.026621        -0.083977
 C        -0.348683        -0.839710         1.388402
 H        -3.201600        -1.779692         2.117965
 H        -1.010701        -3.325847         0.145494
 H        -2.816041        -2.912391         0.228672
 H        -2.543064        -1.007205        -1.319538
 H         1.634797         1.108803        -0.891467
 H         1.798690         1.192371         0.843511
 H         1.982776        -1.442562        -1.006961
 H         2.133034        -1.260912         0.846247
 H         0.184646        -1.593451         1.896697
 H        -0.575689         0.022349         2.052278
