19
Iteration:  4141charge 0 multiplicity 1
 O        -2.931968        -0.854278         1.510364
 C        -1.783721        -1.434246         0.928674
 C        -1.834880        -2.605289        -0.047037
 C        -1.751064        -1.213243        -0.590852
 O        -0.518179        -0.671432        -1.087621
 C         0.383723        -0.579347         0.142120
 C         1.381268         0.556492        -0.004891
 C         1.854085        -0.818268        -0.093835
 C        -0.456631        -0.858608         1.429036
 H        -3.406472        -1.483678         2.108027
 H        -1.088369        -3.345899        -0.034637
 H        -2.811811        -3.080671        -0.107408
 H        -2.542971        -0.906332        -1.154009
 H         1.449972         1.107302        -1.001136
 H         1.717500         1.125860         0.781090
 H         2.082050        -1.313636        -1.110394
 H         2.355406        -1.333022         0.742116
 H        -0.050976        -1.563017         2.156130
 H        -0.824470         0.048694         1.995960
