19
Iteration:  2712charge 0 multiplicity 1
 O        -2.956635        -0.966155         1.594535
 C        -1.796942        -1.350111         0.889989
 C        -1.548635        -2.654861        -0.086622
 C        -1.743000        -1.150139        -0.575535
 O        -0.618319        -0.548732        -1.040839
 C         0.313636        -0.450808         0.058398
 C         1.479201         0.444908         0.046369
 C         1.623690        -1.087320        -0.072780
 C        -0.469124        -0.691162         1.323588
 H        -3.084691        -1.731674         2.165938
 H        -0.483675        -2.979199        -0.001601
 H        -2.349741        -3.354989        -0.184724
 H        -2.649303        -0.890708        -1.183259
 H         1.586441         1.039807        -0.933399
 H         1.797918         0.802855         0.961978
 H         1.887246        -1.397287        -1.106089
 H         1.931423        -1.590424         0.808079
 H         0.113992        -1.282142         2.051570
 H        -0.675664         0.312464         1.861215
