19
Iteration:  1304
 O        -2.621597        -0.713226         1.678486
 C        -1.696972        -1.273384         0.860675
 C        -2.141116        -2.482342        -0.065117
 C        -1.684399        -1.133947        -0.728557
 O        -0.356198        -1.195316        -1.053246
 C         0.386049        -0.675379         0.036505
 C         0.819704         0.698519         0.087341
 C         1.857586        -0.486238        -0.039278
 C        -0.278185        -1.214051         1.364795
 H        -3.411338        -1.245823         1.696899
 H        -1.608161        -3.411065        -0.099979
 H        -3.176768        -2.610680        -0.185309
 H        -2.419169        -0.477558        -1.313764
 H         0.732049         1.269779        -0.927889
 H         0.683167         1.404885         0.978726
 H         2.566454        -0.562918        -0.958831
 H         2.402477        -0.828939         0.833061
 H         0.174735        -2.256966         1.833833
 H        -0.244548        -0.544162         2.246188
