19
Iteration:  4063
 O        -2.941775        -0.937323         1.575034
 C        -1.851050        -1.399187         0.917956
 C        -1.724640        -2.589762        -0.009295
 C        -1.828282        -1.202196        -0.663524
 O        -0.584971        -0.607345        -1.095475
 C         0.364000        -0.543242         0.108463
 C         1.526516         0.530477         0.028811
 C         1.784781        -0.980070         0.007467
 C        -0.460806        -0.785385         1.302274
 H        -3.005669        -1.406294         2.406840
 H        -0.794674        -3.228892        -0.145949
 H        -2.553535        -3.282407        -0.269238
 H        -2.653848        -0.957116        -1.482096
 H         1.546828         1.179866        -0.916647
 H         1.665491         1.150283         1.009095
 H         2.134804        -1.211580        -0.992876
 H         2.159337        -1.441729         0.936482
 H         0.168133        -1.289026         2.060595
 H        -0.782520         0.244294         1.714501
