19
Iteration:  4811
 O        -2.961755        -0.646371         1.571398
 C        -1.880027        -1.390331         0.895008
 C        -1.929653        -2.616082        -0.080223
 C        -1.768124        -1.286552        -0.613888
 O        -0.459533        -0.854482        -1.044722
 C         0.357282        -0.593947         0.120183
 C         1.229592         0.690694         0.046264
 C         1.974655        -0.708671        -0.060941
 C        -0.343778        -1.141547         1.285264
 H        -2.853178        -0.672005         2.572633
 H        -1.095601        -3.207719         0.156367
 H        -2.787268        -3.217130        -0.182556
 H        -2.529392        -0.937549        -1.206604
 H         1.213823         1.049525        -0.927096
 H         1.432557         1.329905         1.011522
 H         2.341964        -0.981000        -0.987406
 H         2.513087        -0.978011         0.759394
 H         0.159875        -2.022197         1.514653
 H        -0.152942        -0.383555         2.059243
