19
Iteration:  4748
 O        -2.933921        -0.781638         1.643731
 C        -1.904795        -1.325239         0.923630
 C        -1.915671        -2.549628        -0.027275
 C        -1.740023        -1.133357        -0.622232
 O        -0.382758        -1.005111        -1.051788
 C         0.426456        -0.584264         0.032366
 C         1.267129         0.674683         0.047043
 C         1.926888        -0.678258        -0.153357
 C        -0.476570        -1.040837         1.369815
 H        -3.553168        -1.533347         1.850142
 H        -1.027037        -3.130099         0.017435
 H        -2.888459        -2.957175        -0.182108
 H        -2.416321        -0.814593        -1.281379
 H         1.416550         1.273557        -0.806432
 H         1.361177         1.085543         1.110354
 H         2.333712        -0.892003        -1.125932
 H         2.576972        -1.103445         0.561399
 H        -0.178472        -2.050501         1.814641
 H        -0.368861        -0.239590         2.034325
