19
Iteration:  3905charge 0 multiplicity 1
 O        -3.061456        -1.201374         1.574968
 C        -1.802157        -1.334919         0.880012
 C        -1.487425        -2.478956         0.024337
 C        -1.764934        -1.189973        -0.629511
 O        -0.603332        -0.384868        -1.006345
 C         0.335661        -0.522765         0.110509
 C         1.539858         0.343581        -0.087164
 C         1.702878        -1.163737        -0.089996
 C        -0.602150        -0.536001         1.337410
 H        -2.759213        -1.538193         2.409438
 H        -0.427194        -2.679823         0.263022
 H        -1.949815        -3.435959        -0.044032
 H        -2.648704        -0.901145        -1.329307
 H         1.802215         0.872317        -1.025367
 H         1.717263         0.787136         0.856705
 H         1.773717        -1.663095        -1.031986
 H         2.189666        -1.635450         0.846994
 H        -0.089605        -0.925107         2.255471
 H        -0.858009         0.504750         1.452373
