19
Iteration:  3055charge 0 multiplicity 1
 O        -3.034835        -1.164711         1.545327
 C        -1.766663        -1.327687         0.903850
 C        -1.464802        -2.576620         0.019070
 C        -1.662734        -1.206296        -0.575117
 O        -0.630266        -0.334476        -0.987678
 C         0.302404        -0.420840         0.141476
 C         1.576999         0.322399        -0.036811
 C         1.567903        -1.252801        -0.188879
 C        -0.605442        -0.491408         1.339004
 H        -2.973369        -1.889961         2.182748
 H        -0.494771        -2.945987         0.046144
 H        -2.196116        -3.307437        -0.188933
 H        -2.606129        -1.065900        -1.123082
 H         1.794352         0.914940        -0.918550
 H         2.010032         0.748058         0.836767
 H         1.791910        -1.756822        -1.133693
 H         2.053308        -1.546006         0.692385
 H         0.017871        -0.829446         2.243440
 H        -0.950820         0.522030         1.511100
