19
Iteration:  1776
 O        -3.026923        -1.263993         1.558239
 C        -1.849507        -1.413552         0.910269
 C        -1.437948        -2.562299         0.031365
 C        -1.657351        -1.188754        -0.634230
 O        -0.669930        -0.272160        -0.924007
 C         0.315118        -0.361103         0.003058
 C         1.579938         0.295038        -0.108706
 C         1.519728        -1.239036        -0.031134
 C        -0.517355        -0.398000         1.302522
 H        -2.973787        -1.729282         2.427230
 H        -0.377208        -3.103947         0.195236
 H        -2.406703        -3.238837        -0.011855
 H        -2.482919        -1.015879        -1.323962
 H         2.032328         0.429069        -1.171136
 H         1.950840         0.909333         0.696861
 H         1.888150        -1.883132        -0.928066
 H         2.080424        -1.713203         0.776854
 H         0.145440        -0.821263         2.161125
 H        -0.965363         0.577982         1.652938
