19
Iteration:  4757
 O        -2.912553        -0.755192         1.598594
 C        -1.819794        -1.297432         0.839124
 C        -1.971071        -2.589391         0.001998
 C        -1.700167        -1.193434        -0.604403
 O        -0.389444        -0.954207        -1.033106
 C         0.390318        -0.615468         0.081662
 C         1.241475         0.676569         0.087124
 C         1.847276        -0.724492        -0.167184
 C        -0.391293        -1.004816         1.360115
 H        -3.414087        -1.551020         1.907901
 H        -1.151562        -3.249654        -0.134856
 H        -2.897884        -3.062682        -0.257260
 H        -2.457602        -0.829496        -1.246897
 H         1.272032         1.463245        -0.613361
 H         1.254689         1.263824         1.072526
 H         2.139973        -0.916458        -1.134974
 H         2.351071        -1.261920         0.598311
 H         0.072221        -1.859827         1.771130
 H        -0.304653        -0.256057         2.110919
