19
Iteration:  2520charge 0 multiplicity 1
 O        -2.942358        -1.025476         1.649653
 C        -1.824274        -1.320436         0.877211
 C        -1.736259        -2.603782        -0.059583
 C        -1.750769        -1.222459        -0.699537
 O        -0.548705        -0.550963        -1.030911
 C         0.274631        -0.416104         0.146922
 C         1.573023         0.448423        -0.076194
 C         1.736115        -0.915784        -0.075262
 C        -0.514297        -0.790716         1.420314
 H        -3.170858        -1.899209         2.064776
 H        -0.777520        -3.099420         0.154816
 H        -2.678905        -3.185788        -0.336236
 H        -2.629144        -1.062876        -1.210244
 H         1.676807         0.814737        -1.124672
 H         1.825112         1.247119         0.635269
 H         1.894603        -1.436754        -1.101433
 H         2.237447        -1.389270         0.849437
 H         0.162419        -1.530027         1.969618
 H        -0.598252         0.033573         2.096140
