19
Iteration:  1634
 O        -2.940581        -1.026165         1.596244
 C        -1.739882        -1.260791         0.842200
 C        -1.832309        -2.540397        -0.002935
 C        -1.855510        -1.219526        -0.674698
 O        -0.492544        -0.736659        -0.998123
 C         0.370461        -0.646182         0.123675
 C         1.354907         0.563022         0.005673
 C         1.835461        -0.821416        -0.121595
 C        -0.416495        -0.759836         1.374207
 H        -3.057235        -1.689434         2.303340
 H        -1.042816        -3.287452        -0.036975
 H        -2.906597        -2.859328        -0.094777
 H        -2.488398        -0.771860        -1.347660
 H         1.291845         1.085538        -0.920028
 H         1.446565         1.256322         0.876095
 H         2.229621        -1.145480        -1.051531
 H         2.475077        -1.440308         0.535518
 H        -0.011567        -1.539587         2.071159
 H        -0.419472         0.224834         1.838879
