19
Iteration:   433
 O        -2.953400        -1.049280         1.568932
 C        -1.742037        -1.344287         0.934194
 C        -1.727940        -2.595120         0.110298
 C        -1.725560        -1.296639        -0.556880
 O        -0.563334        -0.713456        -1.033959
 C         0.353389        -0.510627         0.042888
 C         1.440807         0.629920        -0.066280
 C         1.737178        -0.922232        -0.178880
 C        -0.460793        -0.645175         1.360766
 H        -3.568271        -1.804266         1.586351
 H        -0.995219        -3.302990         0.056191
 H        -2.677222        -3.081338         0.048555
 H        -2.651597        -0.898693        -1.026262
 H         1.316289         1.219021        -0.985461
 H         1.821287         1.163710         0.873661
 H         2.028484        -1.321401        -1.111095
 H         2.236637        -1.378619         0.665387
 H         0.197308        -1.132168         2.164470
 H        -0.751161         0.357071         1.717984
