19
Iteration:  2980charge 0 multiplicity 1
 O        -2.929105        -1.259150         1.564339
 C        -1.752408        -1.271021         0.873119
 C        -1.475072        -2.492928        -0.069857
 C        -1.813141        -1.174978        -0.560295
 O        -0.692830        -0.397510        -1.022768
 C         0.254184        -0.395072         0.042878
 C         1.609930         0.303302        -0.051581
 C         1.615447        -1.293367         0.070354
 C        -0.573869        -0.440680         1.303322
 H        -2.698046        -1.963461         2.239317
 H        -0.591571        -2.882638        -0.432316
 H        -2.192550        -3.236369        -0.150855
 H        -2.700078        -0.728515        -1.091432
 H         1.937026         0.652275        -0.989064
 H         2.035888         0.904993         0.810561
 H         2.137921        -1.626747        -0.767740
 H         1.873469        -1.705025         1.006825
 H        -0.075588        -0.870514         2.249051
 H        -0.981187         0.552795         1.465481
