19
Iteration:  2926charge 0 multiplicity 1
 O        -3.059093        -1.040477         1.552798
 C        -1.839863        -1.321714         0.852533
 C        -1.601728        -2.600719         0.056218
 C        -1.734716        -1.239992        -0.652872
 O        -0.622383        -0.427399        -1.002513
 C         0.346839        -0.499851         0.153488
 C         1.552297         0.442705        -0.044439
 C         1.748077        -1.043947        -0.168083
 C        -0.501402        -0.715500         1.382439
 H        -3.029945        -1.731832         2.249531
 H        -0.663883        -3.020027         0.311723
 H        -2.417868        -3.250638        -0.027161
 H        -2.429667        -1.024386        -1.534013
 H         1.552049         1.082913        -0.847359
 H         1.950847         0.861426         0.935912
 H         1.751867        -1.495245        -1.098331
 H         2.356083        -1.587755         0.530176
 H         0.069003        -1.400996         2.118865
 H        -0.692526         0.220001         1.903639
