19
Iteration:  3069
 O        -3.058849        -1.151197         1.488014
 C        -1.779923        -1.281696         0.879957
 C        -1.438127        -2.572493         0.029485
 C        -1.729582        -1.204074        -0.545794
 O        -0.711859        -0.377306        -0.998840
 C         0.279993        -0.481088        -0.005808
 C         1.575297         0.322144        -0.021698
 C         1.678219        -1.142841        -0.130699
 C        -0.453000        -0.527294         1.433310
 H        -3.339041        -1.637317         2.314962
 H        -0.503807        -3.095419         0.366273
 H        -2.291779        -3.229582        -0.289191
 H        -2.549003        -1.134362        -1.168240
 H         1.666126         1.091597        -0.912131
 H         1.860749         0.620152         0.963517
 H         1.835257        -1.597117        -1.151842
 H         1.925606        -1.853517         0.659760
 H         0.045949        -1.124168         2.240097
 H        -0.734440         0.483128         1.781168
