19
Iteration:  4758
 O        -2.910212        -0.754460         1.593458
 C        -1.808999        -1.293631         0.831409
 C        -1.974992        -2.589964         0.004615
 C        -1.702083        -1.201508        -0.609868
 O        -0.391911        -0.948762        -1.033622
 C         0.383737        -0.615954         0.086881
 C         1.238826         0.679371         0.092004
 C         1.842413        -0.729386        -0.161302
 C        -0.378205        -1.000977         1.357390
 H        -3.414820        -1.547046         1.926357
 H        -1.168932        -3.263659        -0.127978
 H        -2.898795        -3.059859        -0.251460
 H        -2.434520        -0.820970        -1.214692
 H         1.237548         1.442857        -0.630592
 H         1.264859         1.240404         1.086579
 H         2.111649        -0.915958        -1.159794
 H         2.340887        -1.258161         0.601176
 H         0.116253        -1.867217         1.787570
 H        -0.335031        -0.265755         2.113903
