19
Iteration:  2997
 O        -2.963925        -1.360980         1.624873
 C        -1.727095        -1.324203         0.873101
 C        -1.467851        -2.475374        -0.029998
 C        -1.805055        -1.043841        -0.629625
 O        -0.654829        -0.311861        -1.095690
 C         0.318837        -0.443025         0.047184
 C         1.617556         0.241727        -0.083791
 C         1.573682        -1.236933         0.119175
 C        -0.575299        -0.419226         1.315542
 H        -3.026618        -2.079988         2.293386
 H        -0.396038        -2.842893         0.150426
 H        -2.306859        -3.210921        -0.132241
 H        -2.749585        -1.002393        -1.226198
 H         1.954151         0.428811        -1.149789
 H         1.764157         1.075689         0.621520
 H         1.770649        -1.874666        -0.779176
 H         1.656577        -1.852177         1.089197
 H         0.069428        -0.701421         2.136694
 H        -0.871698         0.652524         1.489164
