19
Iteration:   309
 O        -2.875450        -0.957328         1.683225
 C        -1.833952        -1.242050         0.880579
 C        -1.838895        -2.583491         0.114246
 C        -1.720619        -1.173804        -0.634361
 O        -0.396624        -0.907673        -1.103504
 C         0.358704        -0.549540         0.128694
 C         1.207552         0.649398         0.009700
 C         1.789164        -0.779804        -0.238440
 C        -0.410313        -0.861985         1.387236
 H        -3.612153        -1.517083         1.444962
 H        -0.894353        -3.334825         0.013984
 H        -2.773536        -3.181680        -0.132559
 H        -2.397671        -0.950795        -1.436858
 H         1.078265         1.334450        -0.811447
 H         1.546656         1.101135         0.901823
 H         1.930220        -1.040784        -1.228593
 H         2.485216        -1.272165         0.536771
 H         0.036313        -1.536975         2.204008
 H        -0.472288         0.139731         1.768928
