19
Iteration:   604
 O        -2.995483        -1.232348         1.557274
 C        -1.752721        -1.358265         0.878064
 C        -1.594418        -2.565930         0.053295
 C        -1.733057        -1.199653        -0.563363
 O        -0.609811        -0.465660        -0.975477
 C         0.282165        -0.355988         0.056546
 C         1.653757         0.443078        -0.192698
 C         1.598543        -1.113140        -0.071596
 C        -0.525127        -0.516029         1.382512
 H        -3.299511        -2.082106         1.974569
 H        -0.632245        -3.127487         0.052267
 H        -2.498799        -3.193863         0.108015
 H        -2.649513        -0.988289        -1.108359
 H         1.884933         0.997585        -1.084630
 H         1.979065         0.944920         0.675400
 H         1.676061        -1.675070        -0.923666
 H         2.156686        -1.603585         0.782219
 H         0.101453        -1.093066         2.098125
 H        -1.000451         0.396581         1.904048
