19
Iteration:     2
 O        -2.953006        -1.148408         1.592329
 C        -1.765481        -1.335308         0.896972
 C        -1.518232        -2.589926         0.083602
 C        -1.733413        -1.247415        -0.601206
 O        -0.606633        -0.527344        -1.035289
 C         0.271604        -0.420519         0.068963
 C         1.462528         0.466507        -0.119833
 C         1.658373        -1.040106        -0.109059
 C        -0.529120        -0.568105         1.346475
 H        -2.966472        -1.741659         2.365240
 H        -0.528981        -3.071537         0.105095
 H        -2.395083        -3.317603         0.061198
 H        -2.601178        -1.094883        -1.215547
 H         1.546705         0.964212        -1.090788
 H         1.809159         1.052026         0.730386
 H         1.832398        -1.539796        -1.034479
 H         2.112938        -1.526345         0.800536
 H         0.031036        -1.073561         2.181692
 H        -0.859933         0.393026         1.691707
