19
Iteration:  2075
 O        -2.947690        -0.946804         1.539290
 C        -1.794303        -1.318678         0.871688
 C        -1.521828        -2.592089        -0.080190
 C        -1.720974        -1.241141        -0.648341
 O        -0.630157        -0.529637        -0.973267
 C         0.314490        -0.508387         0.139397
 C         1.388553         0.473031         0.035944
 C         1.702188        -1.101180        -0.222595
 C        -0.488622        -0.717466         1.488953
 H        -3.136461        -1.477832         2.312515
 H        -0.544960        -3.115685        -0.146272
 H        -2.335476        -3.302632        -0.149971
 H        -2.612741        -1.131873        -1.443766
 H         1.371875         1.084537        -0.863348
 H         1.765578         1.075652         0.996344
 H         1.794734        -1.396196        -1.295958
 H         2.214177        -1.480699         0.731264
 H        -0.020110        -1.474270         2.064119
 H        -0.623146         0.328883         2.021842
