19
Iteration:  1053charge 0 multiplicity 1
 O        -2.839940        -0.808306         1.548637
 C        -1.770611        -1.399861         0.915263
 C        -2.026310        -2.612303        -0.010031
 C        -1.860148        -1.271043        -0.614490
 O        -0.488716        -0.919658        -1.070799
 C         0.339856        -0.465220         0.068927
 C         1.293126         0.753914         0.023496
 C         1.915088        -0.651159        -0.022279
 C        -0.279751        -1.111415         1.283317
 H        -2.976649        -1.105077         2.492941
 H        -1.456481        -3.460606        -0.157632
 H        -3.087478        -2.907844        -0.080545
 H        -2.674337        -0.867688        -1.149089
 H         1.269889         1.540916        -0.812021
 H         1.285896         1.400021         0.972167
 H         2.425090        -1.040415        -0.980002
 H         2.408547        -1.025566         0.884993
 H         0.276450        -1.966834         1.649107
 H        -0.356416        -0.429520         2.099466
