19
Iteration:  2315
 O        -2.945088        -0.876062         1.640140
 C        -1.802880        -1.374505         0.885212
 C        -1.701959        -2.543228        -0.168619
 C        -1.787565        -1.117819        -0.583894
 O        -0.550623        -0.683248        -1.012452
 C         0.357954        -0.633371         0.081755
 C         1.321024         0.524832        -0.011998
 C         1.812207        -0.910957        -0.071348
 C        -0.420179        -0.887198         1.361161
 H        -3.372780        -1.540693         2.220863
 H        -0.719255        -3.100889        -0.201499
 H        -2.531432        -3.273942        -0.039349
 H        -2.551054        -0.770734        -1.135350
 H         1.405758         0.982613        -1.070840
 H         1.551584         1.246048         0.860455
 H         2.307137        -1.240439        -1.056465
 H         2.353811        -1.218267         0.911191
 H         0.060917        -1.544278         2.059208
 H        -0.732645         0.127231         1.802978
