19
Iteration:  4419charge 0 multiplicity 1
 O        -3.033088        -1.157876         1.487844
 C        -1.742387        -1.272102         0.866258
 C        -1.504641        -2.636115         0.076196
 C        -1.692760        -1.225886        -0.610389
 O        -0.599449        -0.449503        -0.949204
 C         0.286303        -0.353623         0.061613
 C         1.569230         0.365407         0.008887
 C         1.559461        -1.175225        -0.129918
 C        -0.521084        -0.528324         1.306796
 H        -2.930648        -1.481439         2.383355
 H        -0.671463        -3.350470         0.151331
 H        -2.501128        -3.077329         0.012004
 H        -2.399832        -1.061776        -1.328966
 H         1.802275         1.104920        -0.716264
 H         2.050122         0.767653         1.029723
 H         1.631260        -1.507195        -1.124743
 H         1.815242        -1.760292         0.725240
 H         0.035877        -1.024997         2.174651
 H        -0.979291         0.433817         1.419593
