19
Iteration:  1122
 O        -2.882540        -0.810409         1.617511
 C        -1.807517        -1.396294         0.872270
 C        -2.078980        -2.506755        -0.029636
 C        -1.673845        -1.110181        -0.560177
 O        -0.364578        -1.043001        -1.055867
 C         0.426536        -0.582467         0.098997
 C         1.104967         0.719181        -0.002163
 C         1.922887        -0.617650        -0.144798
 C        -0.329729        -1.136014         1.380693
 H        -3.354818        -1.579417         1.975714
 H        -1.189887        -3.189386        -0.180634
 H        -3.073089        -2.857833        -0.170623
 H        -2.537110        -0.478230        -0.976038
 H         0.859980         1.141779        -0.971226
 H         1.143100         1.498285         0.790056
 H         2.097130        -0.842986        -1.139927
 H         2.625151        -0.925585         0.570192
 H         0.233073        -1.834913         1.955274
 H        -0.424074        -0.315333         2.082083
