19
Iteration:  3465
 O        -2.746955        -0.609313         1.646871
 C        -1.739407        -1.366164         0.839790
 C        -2.122241        -2.532823        -0.128076
 C        -1.763878        -1.181371        -0.690509
 O        -0.305929        -1.098578        -1.049620
 C         0.411845        -0.688086         0.135467
 C         0.924983         0.702503         0.105971
 C         1.893548        -0.473826        -0.042229
 C        -0.309738        -1.262431         1.325691
 H        -2.809487        -1.234462         2.393246
 H        -1.558994        -3.469954        -0.384095
 H        -3.238534        -2.672116        -0.121499
 H        -2.451049        -0.548488        -1.308738
 H         0.773282         1.209643        -0.884336
 H         1.065286         1.432787         0.936742
 H         2.367581        -0.733709        -1.058711
 H         2.461619        -0.593776         0.866075
 H         0.061405        -2.343005         1.451238
 H        -0.166920        -0.690617         2.302900
