19
Iteration:   394
 O        -2.832244        -0.980791         1.827140
 C        -1.811627        -1.264314         0.852327
 C        -1.735830        -2.572731         0.048023
 C        -1.776650        -1.283645        -0.708176
 O        -0.503307        -0.861542        -1.102639
 C         0.354302        -0.595611         0.046043
 C         1.313153         0.617152         0.041910
 C         1.795026        -0.801446        -0.161323
 C        -0.515723        -0.718924         1.302994
 H        -3.585132        -1.428911         1.418636
 H        -0.734923        -3.222168         0.228418
 H        -2.756609        -3.043017        -0.086614
 H        -2.528506        -0.967207        -1.403917
 H         1.302949         1.262950        -0.878322
 H         1.508004         1.129779         0.989613
 H         2.195256        -0.999998        -1.138986
 H         2.360626        -1.404885         0.720986
 H        -0.078775        -1.331506         2.058535
 H        -0.594790         0.318480         1.745829
