19
Iteration:  2163charge 0 multiplicity 1
 O        -2.940027        -1.270272         1.634509
 C        -1.719979        -1.302556         0.903325
 C        -1.433649        -2.477237        -0.036782
 C        -1.654851        -1.147706        -0.681742
 O        -0.576421        -0.321641        -1.000506
 C         0.240081        -0.493226         0.169264
 C         1.451117         0.238519        -0.130429
 C         1.563434        -1.258811        -0.041646
 C        -0.629417        -0.405246         1.370192
 H        -3.063128        -2.146517         1.996071
 H        -0.451031        -2.977512        -0.212379
 H        -2.377429        -3.087050        -0.194603
 H        -2.559267        -0.887013        -1.201346
 H         1.445487         0.718161        -1.182278
 H         1.969900         1.010463         0.523143
 H         1.669975        -2.006892        -0.872962
 H         2.112234        -1.642395         0.924849
 H        -0.148792        -0.647855         2.291074
 H        -0.951135         0.707049         1.465477
