19
Iteration:  4394
 O        -3.011695        -1.235613         1.557760
 C        -1.739240        -1.359346         0.901422
 C        -1.500387        -2.590014         0.024230
 C        -1.709115        -1.155236        -0.698503
 O        -0.613289        -0.383284        -1.096271
 C         0.246362        -0.375969         0.157665
 C         1.706733         0.270056        -0.101356
 C         1.517275        -1.159434         0.034643
 C        -0.603209        -0.422224         1.412454
 H        -3.092711        -1.957536         2.231951
 H        -0.468416        -3.001269         0.025808
 H        -2.293585        -3.358351        -0.074933
 H        -2.651704        -0.776113        -1.185232
 H         1.757546         0.607652        -1.204164
 H         2.249745         0.824655         0.542802
 H         1.770155        -1.653759        -0.990235
 H         1.949758        -1.583801         0.995746
 H         0.028939        -0.831196         2.229488
 H        -1.091731         0.553858         1.578676
