19
Iteration:  4473
 O        -3.041276        -0.938589         1.523136
 C        -1.844261        -1.321703         0.884736
 C        -1.703795        -2.601370         0.054917
 C        -1.747136        -1.294534        -0.620967
 O        -0.512676        -0.537925        -1.013714
 C         0.375407        -0.537940         0.106375
 C         1.483404         0.537236        -0.002581
 C         1.704462        -1.001639        -0.119057
 C        -0.435754        -0.769382         1.336055
 H        -3.309703        -1.582849         2.197994
 H        -0.719437        -3.049903         0.202513
 H        -2.447032        -3.378546        -0.172275
 H        -2.526347        -1.025461        -1.307896
 H         1.387993         1.116697        -0.881590
 H         1.956509         1.180045         0.849734
 H         1.969057        -1.366186        -1.083013
 H         2.229043        -1.521802         0.679711
 H         0.068859        -1.565828         2.030410
 H        -0.552618         0.107320         1.958747
