19
Iteration:  1363
 O        -2.773856        -0.691641         1.521452
 C        -1.750989        -1.340980         0.833121
 C        -2.082471        -2.528779         0.041561
 C        -1.741499        -1.181383        -0.629445
 O        -0.318942        -1.018830        -1.036410
 C         0.396353        -0.663463         0.170401
 C         0.999414         0.805094         0.049860
 C         1.849702        -0.574677        -0.102618
 C        -0.345894        -1.285466         1.321746
 H        -2.951605        -1.238499         2.334563
 H        -1.278324        -3.320994        -0.112876
 H        -3.161750        -2.807970        -0.022504
 H        -2.411920        -0.537198        -1.162826
 H         0.714515         1.339238        -0.797679
 H         1.019614         1.327610         0.964824
 H         1.991998        -0.922160        -1.086184
 H         2.584450        -0.901758         0.688837
 H         0.284963        -2.308747         1.385565
 H        -0.005716        -0.620046         2.131613
