19
Iteration:  4268
 O        -3.124000        -0.948527         1.494820
 C        -1.898740        -1.324565         0.884589
 C        -1.524822        -2.568584         0.055535
 C        -1.678610        -1.299065        -0.633993
 O        -0.571715        -0.477109        -1.010003
 C         0.334767        -0.501309         0.131850
 C         1.497735         0.489837        -0.039590
 C         1.763276        -1.078803        -0.160797
 C        -0.498375        -0.741046         1.454713
 H        -3.233983        -1.543868         2.231139
 H        -0.532444        -3.013107         0.021637
 H        -2.359854        -3.270412        -0.164613
 H        -2.539037        -1.193440        -1.218262
 H         1.279654         1.153155        -1.005927
 H         1.979096         1.029247         0.796644
 H         2.002574        -1.468838        -1.150249
 H         2.296727        -1.636215         0.529754
 H        -0.059038        -1.616341         2.006851
 H        -0.468263         0.073256         2.188403
