19
Iteration:  4458charge 0 multiplicity 1
 O        -3.099622        -0.899095         1.563411
 C        -1.891253        -1.306565         0.848102
 C        -1.437870        -2.578431         0.035511
 C        -1.731485        -1.201611        -0.619520
 O        -0.617579        -0.582658        -1.008418
 C         0.271253        -0.500526         0.092858
 C         1.474875         0.401438         0.024685
 C         1.829068        -1.013205        -0.193901
 C        -0.532124        -0.768259         1.378648
 H        -3.181771        -1.529558         2.337054
 H        -0.375709        -2.882993         0.109527
 H        -2.182746        -3.351399        -0.142509
 H        -2.577176        -1.084806        -1.292347
 H         1.622649         1.083343        -0.841194
 H         1.715685         0.717137         0.951972
 H         2.110364        -1.456243        -1.195897
 H         2.363229        -1.503395         0.678164
 H        -0.025181        -1.436545         2.045075
 H        -0.610742         0.176908         1.972134
