19
Iteration:  2002charge 0 multiplicity 1
 O        -2.849511        -0.908150         1.695798
 C        -1.790115        -1.432604         0.826799
 C        -1.779649        -2.581279        -0.082172
 C        -1.792548        -1.099496        -0.618559
 O        -0.485528        -0.694307        -1.091926
 C         0.349927        -0.544200         0.079986
 C         1.334385         0.569218        -0.000717
 C         1.828457        -0.910284        -0.038034
 C        -0.502992        -0.855631         1.333390
 H        -3.155941        -1.647612         2.228549
 H        -0.868713        -3.281596        -0.078423
 H        -2.701463        -3.223556        -0.162828
 H        -2.755984        -0.834144        -1.139365
 H         1.349883         1.154455        -0.919754
 H         1.588545         1.338762         0.881440
 H         2.121463        -1.223133        -1.061206
 H         1.994224        -1.555882         0.908816
 H         0.027072        -1.477705         2.110435
 H        -0.814781         0.053706         1.861172
