19
Iteration:   599
 O        -2.968570        -1.224512         1.561011
 C        -1.753572        -1.376175         0.905013
 C        -1.552913        -2.552655         0.011673
 C        -1.756298        -1.228196        -0.595992
 O        -0.642776        -0.444664        -0.985109
 C         0.266647        -0.347626         0.071419
 C         1.669948         0.443964        -0.202464
 C         1.574085        -1.129902        -0.031720
 C        -0.503653        -0.508040         1.409547
 H        -3.444738        -2.008839         1.827002
 H        -0.706332        -3.217751         0.031448
 H        -2.410736        -3.247880         0.160565
 H        -2.681918        -0.995491        -1.117411
 H         1.822885         0.935255        -1.200672
 H         2.031760         0.931999         0.744844
 H         1.705938        -1.771279        -1.003727
 H         2.035351        -1.492586         0.878847
 H         0.077571        -1.066103         2.136310
 H        -0.796025         0.440334         1.819849
