19
Iteration:  2067charge 0 multiplicity 1
 O        -3.024844        -0.943011         1.529730
 C        -1.827628        -1.303489         0.915285
 C        -1.522549        -2.601971        -0.084449
 C        -1.752842        -1.219021        -0.626743
 O        -0.595173        -0.613918        -0.987993
 C         0.338432        -0.497023         0.148891
 C         1.433480         0.485603        -0.022124
 C         1.696750        -0.987346        -0.219797
 C        -0.464924        -0.768757         1.454676
 H        -3.200454        -1.488708         2.313486
 H        -0.470678        -2.999911         0.007639
 H        -2.388241        -3.326032        -0.231255
 H        -2.573949        -0.863762        -1.239237
 H         1.469955         1.344182        -0.712636
 H         1.957104         0.804847         0.998466
 H         1.718023        -1.488173        -1.174500
 H         2.333642        -1.578636         0.572690
 H         0.052313        -1.462767         2.158406
 H        -0.607659         0.089137         2.147001
