19
Iteration:  3423
 O        -2.767348        -0.597782         1.589252
 C        -1.778863        -1.324394         0.817342
 C        -2.087713        -2.569246        -0.012384
 C        -1.691773        -1.292661        -0.689367
 O        -0.409693        -1.006389        -1.098416
 C         0.376194        -0.640946         0.113143
 C         1.014769         0.703645         0.172305
 C         1.852074        -0.532714        -0.016780
 C        -0.199931        -1.257901         1.268380
 H        -3.609119        -1.051300         1.913446
 H        -1.519065        -3.544089        -0.005850
 H        -3.148283        -2.801514         0.311971
 H        -2.440809        -0.731225        -1.275783
 H         0.744103         1.369571        -0.692685
 H         1.097551         1.181560         1.192852
 H         2.428067        -0.531725        -1.045628
 H         2.530417        -0.899750         0.755527
 H         0.188396        -2.305438         1.277657
 H        -0.056076        -0.641350         2.181018
