19
Iteration:   441
 O        -2.963016        -1.035727         1.568772
 C        -1.735706        -1.380343         0.927195
 C        -1.720363        -2.587196         0.124443
 C        -1.708500        -1.301599        -0.581404
 O        -0.538858        -0.629391        -1.022581
 C         0.333681        -0.415811         0.074412
 C         1.436299         0.576285        -0.145351
 C         1.715906        -0.929612        -0.159109
 C        -0.456359        -0.693436         1.404870
 H        -3.460387        -1.822317         1.834772
 H        -0.861036        -3.302349         0.056699
 H        -2.745116        -3.116856         0.008954
 H        -2.577918        -1.272320        -1.259405
 H         1.601159         0.998881        -1.081156
 H         1.614535         1.183017         0.697363
 H         1.937299        -1.439574        -1.147101
 H         2.178954        -1.326739         0.664816
 H        -0.106778        -1.307424         2.272290
 H        -0.739855         0.243126         1.776950
