19
Iteration:  4832
 O        -2.922057        -0.757568         1.585829
 C        -1.811561        -1.240217         0.790755
 C        -1.940190        -2.548259         0.094872
 C        -1.710547        -1.184957        -0.645831
 O        -0.387921        -0.931372        -1.090230
 C         0.356531        -0.612828         0.093441
 C         1.225656         0.682330         0.008142
 C         1.864459        -0.717936        -0.072728
 C        -0.414435        -1.157555         1.355501
 H        -2.887995        -1.413924         2.303388
 H        -1.137307        -3.238601         0.027716
 H        -2.868873        -2.999286        -0.146846
 H        -2.482359        -0.708400        -1.174077
 H         1.175201         1.342417        -0.824317
 H         1.244103         1.291388         0.999967
 H         2.214914        -0.983040        -1.002882
 H         2.333406        -1.003319         0.802539
 H        -0.070751        -2.094469         1.697637
 H        -0.209713        -0.408671         2.193249
