19
Iteration:  2239charge 0 multiplicity 1
 O        -2.966432        -1.067036         1.571529
 C        -1.771704        -1.325423         0.859938
 C        -1.484572        -2.532461        -0.023875
 C        -1.772679        -1.173890        -0.634041
 O        -0.590716        -0.465052        -0.970782
 C         0.304226        -0.635910         0.135061
 C         1.443552         0.346624         0.014354
 C         1.734340        -1.076621        -0.198065
 C        -0.592822        -0.596608         1.351892
 H        -2.916472        -1.452448         2.475081
 H        -0.480704        -3.010517        -0.067121
 H        -2.301688        -3.292436         0.085351
 H        -2.610630        -0.833664        -1.082469
 H         1.333014         1.251061        -0.728068
 H         1.919261         0.746103         0.893712
 H         1.746178        -1.357424        -1.296454
 H         2.172893        -1.663507         0.646932
 H        -0.220594        -1.033443         2.205678
 H        -0.868000         0.500970         1.491356
