19
Iteration:  2601charge 0 multiplicity 1
 O        -2.994710        -1.207202         1.656745
 C        -1.803452        -1.345590         0.819841
 C        -1.389294        -2.586857         0.025173
 C        -1.650473        -1.161516        -0.645719
 O        -0.645147        -0.296761        -1.066546
 C         0.221270        -0.336604         0.054282
 C         1.640804         0.289050        -0.030447
 C         1.514252        -1.236140        -0.072081
 C        -0.640962        -0.542578         1.386849
 H        -2.795134        -1.700723         2.493066
 H        -0.608670        -3.210753         0.340387
 H        -2.171317        -3.244092        -0.338694
 H        -2.631658        -1.053534        -1.334648
 H         1.841440         0.690554        -0.956998
 H         2.248453         0.812183         0.793805
 H         1.781627        -1.577633        -0.995242
 H         1.904921        -1.801002         0.738802
 H         0.053615        -0.959803         2.075279
 H        -0.916130         0.570619         1.586795
