19
Iteration:   566
 O        -2.785857        -1.208666         1.727060
 C        -1.788074        -1.389328         0.889395
 C        -1.306263        -2.519669        -0.026459
 C        -1.736917        -1.160780        -0.656207
 O        -0.632940        -0.338479        -1.007390
 C         0.239234        -0.374624         0.048824
 C         1.449200         0.266487        -0.189452
 C         1.525282        -1.252705         0.062837
 C        -0.675503        -0.490707         1.309988
 H        -3.674601        -1.469053         1.418744
 H        -0.295108        -2.821018         0.212707
 H        -2.066788        -3.296837        -0.119020
 H        -2.622420        -0.951464        -1.271558
 H         1.785313         0.694164        -1.209969
 H         1.658638         0.959972         0.655664
 H         1.769610        -1.846844        -0.916525
 H         1.945768        -1.608954         0.975269
 H        -0.113229        -0.926102         2.150089
 H        -0.982301         0.490379         1.631384
