19
Iteration:   121charge 0 multiplicity 1
 O        -2.838720        -1.092938         1.663786
 C        -1.783354        -1.347115         0.795626
 C        -1.442427        -2.555185         0.076308
 C        -1.735526        -1.210219        -0.643968
 O        -0.627008        -0.493470        -1.038219
 C         0.278486        -0.405893         0.068441
 C         1.472961         0.438423        -0.197386
 C         1.604414        -1.074677         0.003796
 C        -0.626950        -0.636433         1.353721
 H        -2.985574        -1.896283         2.206421
 H        -0.549794        -3.085958         0.350430
 H        -2.271480        -3.295717        -0.181262
 H        -2.528480        -1.291271        -1.392393
 H         1.454012         0.900426        -1.216628
 H         1.811278         1.056039         0.658572
 H         1.827057        -1.809488        -0.696271
 H         1.839723        -1.309417         1.103466
 H        -0.028289        -1.216787         2.110622
 H        -1.141275         0.244155         1.867686
