19
Iteration:  3819charge 0 multiplicity 1
 O        -2.904486        -0.960787         1.646035
 C        -1.768000        -1.264255         0.828214
 C        -1.790538        -2.600260         0.035091
 C        -1.727971        -1.159656        -0.687072
 O        -0.488456        -0.615433        -1.057038
 C         0.354451        -0.658019         0.085142
 C         1.274886         0.476136         0.026521
 C         1.836018        -0.888268        -0.079218
 C        -0.494571        -0.822641         1.333605
 H        -3.373944        -1.750717         1.986665
 H        -0.792764        -3.067560         0.003757
 H        -2.717561        -3.109714        -0.127570
 H        -2.599910        -0.824799        -1.409804
 H         1.223948         1.006455        -0.929597
 H         1.462118         1.150333         0.880113
 H         2.468871        -1.211988        -0.863467
 H         2.264850        -1.217668         0.935459
 H         0.009697        -1.473150         2.087922
 H        -0.680543         0.132578         1.805904
