19
Iteration:  3696
 O        -2.901319        -0.843702         1.735308
 C        -1.826726        -1.363332         0.859851
 C        -1.978761        -2.496858        -0.066934
 C        -1.722009        -1.157501        -0.680373
 O        -0.379997        -1.002542        -1.111377
 C         0.422572        -0.569791         0.022133
 C         1.216115         0.743552         0.066037
 C         1.830518        -0.710537        -0.025449
 C        -0.366128        -1.025176         1.314642
 H        -3.401343        -1.642888         2.078668
 H        -1.164977        -3.239469        -0.154017
 H        -3.045165        -2.768896        -0.090776
 H        -2.422785        -0.655524        -1.260602
 H         1.182428         1.223523        -0.926849
 H         1.183244         1.322684         0.938312
 H         2.465546        -1.063952        -0.877159
 H         2.264262        -1.135570         0.908274
 H         0.119313        -1.923958         1.751022
 H        -0.392428        -0.215503         2.072109
