19
Iteration:   777
 O        -2.886643        -0.963688         1.699251
 C        -1.748263        -1.387150         0.875700
 C        -1.999105        -2.627450        -0.043914
 C        -1.765646        -1.184955        -0.644731
 O        -0.475647        -0.844891        -1.105815
 C         0.374540        -0.480452         0.039109
 C         1.326108         0.674085        -0.038924
 C         1.875139        -0.738486         0.020472
 C        -0.360440        -0.879819         1.314573
 H        -3.266801        -1.800951         2.048295
 H        -1.315680        -3.493703        -0.065953
 H        -3.058744        -2.809264        -0.199350
 H        -2.628129        -0.536160        -0.923116
 H         1.306849         1.179416        -0.993317
 H         1.418549         1.282473         0.720453
 H         2.360803        -1.309324        -0.816730
 H         2.217105        -1.138890         0.916994
 H         0.201539        -1.505550         1.903693
 H        -0.672458        -0.034200         1.946228
