19
Iteration:   755charge 0 multiplicity 1
 O        -2.831189        -1.066880         1.688218
 C        -1.740752        -1.288498         0.848618
 C        -1.921914        -2.501672        -0.022477
 C        -1.782562        -1.102840        -0.689763
 O        -0.378511        -0.927886        -1.027458
 C         0.323054        -0.561312         0.113997
 C         1.307039         0.659490        -0.026133
 C         1.766649        -0.792194        -0.095525
 C        -0.461984        -0.804388         1.396931
 H        -3.363337        -1.875170         1.696975
 H        -1.008821        -3.072433        -0.335334
 H        -2.882191        -2.965931         0.097295
 H        -2.690092        -0.845205        -1.230977
 H         1.342738         1.246269        -0.934695
 H         1.490203         1.179751         0.772290
 H         1.991274        -1.123475        -1.150897
 H         2.451293        -1.249288         0.567931
 H        -0.001708        -1.437580         2.054825
 H        -0.652649         0.158123         1.891068
