19
Iteration:  4532charge 0 multiplicity 1
 O        -3.009688        -0.928184         1.707421
 C        -1.819348        -1.362824         0.886541
 C        -1.809212        -2.546170        -0.130950
 C        -1.795238        -1.060804        -0.628076
 O        -0.428145        -0.886929        -1.068178
 C         0.336739        -0.599535         0.071315
 C         1.365833         0.571006        -0.051621
 C         1.903038        -0.846811        -0.009423
 C        -0.501078        -0.812602         1.356895
 H        -3.025479        -1.508835         2.466785
 H        -0.819705        -3.027806        -0.184444
 H        -2.720405        -3.081669        -0.335414
 H        -2.570877        -0.498671        -1.229321
 H         1.516041         1.037147        -1.098588
 H         1.414132         1.211628         0.779791
 H         2.363268        -1.093335        -0.983238
 H         2.462330        -1.290760         0.857255
 H         0.075694        -1.587121         1.944828
 H        -0.675459         0.176354         1.921390
