19
Iteration:  4704charge 0 multiplicity 1
 O        -2.770709        -0.875819         1.600987
 C        -1.719859        -1.375198         0.842716
 C        -2.026687        -2.469668        -0.057380
 C        -1.670807        -1.133197        -0.667498
 O        -0.388685        -0.932526        -1.012067
 C         0.307803        -0.581868         0.145933
 C         1.167468         0.640879        -0.097605
 C         1.803509        -0.790575         0.013629
 C        -0.404271        -0.957355         1.400433
 H        -3.398471        -1.627466         1.735437
 H        -1.499290        -3.392529        -0.103482
 H        -3.101868        -2.475106        -0.105142
 H        -2.464805        -0.640206        -1.160450
 H         1.146698         1.108933        -1.054135
 H         1.270084         1.447502         0.732955
 H         2.211407        -1.119431        -0.868610
 H         2.398658        -1.104615         0.846973
 H         0.330840        -1.744562         1.890909
 H        -0.629300        -0.112931         2.004018
