19
Iteration:  3281
 O        -2.895124        -0.733159         1.633832
 C        -1.851120        -1.323034         0.805081
 C        -1.964723        -2.591349        -0.014656
 C        -1.670993        -1.192107        -0.600497
 O        -0.357890        -0.893788        -1.131413
 C         0.375033        -0.608169         0.054487
 C         1.161387         0.612150         0.127661
 C         1.883954        -0.677108        -0.126451
 C        -0.388631        -1.048975         1.341421
 H        -3.154022        -1.510130         2.207186
 H        -1.196361        -3.345523         0.264029
 H        -2.991142        -3.017813        -0.050557
 H        -2.602686        -0.787807        -1.103818
 H         0.881735         1.328019        -0.677269
 H         1.199809         0.999022         1.156398
 H         2.299800        -0.842474        -1.087439
 H         2.591723        -1.116177         0.681350
 H         0.006171        -1.995954         1.641484
 H        -0.330671        -0.325176         2.178904
