19
Iteration:  1494
 O        -2.836053        -0.876244         1.638462
 C        -1.739037        -1.356046         0.917062
 C        -2.018608        -2.539895        -0.064769
 C        -1.681995        -1.131640        -0.656001
 O        -0.394006        -0.906519        -1.023263
 C         0.372782        -0.585998         0.079795
 C         1.173469         0.581911        -0.013714
 C         1.803519        -0.724881        -0.074752
 C        -0.400119        -0.920999         1.362889
 H        -3.336023        -1.634244         2.043272
 H        -1.146082        -3.286845        -0.148113
 H        -3.010148        -3.090865        -0.277154
 H        -2.324073        -0.482105        -1.198857
 H         1.036993         1.231384        -0.862419
 H         1.255983         1.294415         0.719280
 H         2.240434        -0.937397        -1.102502
 H         2.364945        -1.149230         0.740464
 H         0.122433        -1.717385         1.784783
 H        -0.448653        -0.168302         2.156691
