19
Iteration:  1456charge 0 multiplicity 1
 O        -2.817541        -0.839863         1.667170
 C        -1.846963        -1.330255         0.828425
 C        -2.003088        -2.546367        -0.024306
 C        -1.773335        -1.167633        -0.622440
 O        -0.393889        -0.911319        -1.063302
 C         0.347255        -0.574464         0.079211
 C         1.195573         0.621869        -0.039403
 C         1.923270        -0.644451        -0.032093
 C        -0.349217        -1.052349         1.327069
 H        -3.495819        -1.489660         1.844911
 H        -1.164898        -3.144578        -0.081179
 H        -2.944331        -3.029672        -0.068073
 H        -2.652183        -0.562359        -1.119068
 H         1.077375         1.046324        -1.049809
 H         1.270174         1.318116         0.904238
 H         2.460675        -0.924349        -0.887186
 H         2.398169        -1.030346         0.909221
 H         0.028306        -2.064354         1.792282
 H        -0.320556        -0.369120         2.195668
