19
Iteration:   183
 O        -2.989574        -0.998261         1.635972
 C        -1.794876        -1.302184         0.826984
 C        -1.807085        -2.687157         0.143472
 C        -1.745029        -1.338402        -0.652839
 O        -0.491011        -0.650646        -1.058889
 C         0.381383        -0.543873         0.114791
 C         1.390417         0.580678         0.047423
 C         1.836831        -0.849174        -0.296014
 C        -0.457869        -0.683408         1.382143
 H        -3.168156        -1.914528         1.885326
 H        -0.957732        -3.229247         0.267857
 H        -2.671992        -3.233011         0.181750
 H        -2.568530        -0.928537        -1.245767
 H         1.368037         1.335128        -0.756094
 H         1.655355         1.097394         0.962949
 H         1.809605        -1.063085        -1.283917
 H         2.556944        -1.475113         0.305469
 H        -0.073882        -1.250224         2.150521
 H        -0.717608         0.335338         1.808267
