19
Iteration:  2367
 O        -2.957301        -0.987606         1.521820
 C        -1.773746        -1.288078         0.861084
 C        -1.960182        -2.544941         0.074792
 C        -1.784691        -1.188185        -0.683894
 O        -0.473845        -0.758445        -1.041222
 C         0.385559        -0.519401         0.061509
 C         1.368811         0.638138         0.097399
 C         1.782807        -0.850236        -0.128930
 C        -0.285288        -0.892349         1.380595
 H        -3.123916        -1.475637         2.332807
 H        -1.242698        -3.380869        -0.134424
 H        -2.923264        -2.995463        -0.157949
 H        -2.550246        -0.774043        -1.308893
 H         1.384515         1.291290        -0.833907
 H         1.508091         1.060511         1.077799
 H         2.135234        -1.385843        -1.050513
 H         2.239149        -1.470145         0.729975
 H         0.250505        -1.749147         1.939104
 H        -0.390011        -0.031183         2.062860
