19
Iteration:  2444charge 0 multiplicity 1
 O        -2.965816        -0.966562         1.539364
 C        -1.798187        -1.332035         0.913309
 C        -1.965713        -2.612065         0.030396
 C        -1.723200        -1.178049        -0.626483
 O        -0.449185        -0.755002        -1.078425
 C         0.367883        -0.503657         0.078420
 C         1.446851         0.609945         0.065028
 C         1.789890        -0.787301        -0.155968
 C        -0.400330        -0.899754         1.358515
 H        -3.018523        -1.398887         2.397501
 H        -1.001911        -3.157134         0.013247
 H        -2.991941        -3.104611        -0.154462
 H        -2.539026        -0.816963        -1.158227
 H         1.327480         1.238162        -0.764865
 H         1.673591         1.110470         1.094282
 H         2.033343        -1.112102        -1.197842
 H         2.092218        -1.583906         0.662216
 H         0.150851        -1.716965         1.972710
 H        -0.503420        -0.067769         2.096471
