19
Iteration:  4097
 O        -3.017634        -0.955694         1.464735
 C        -1.829749        -1.263303         0.867031
 C        -1.746392        -2.520055         0.152903
 C        -1.676890        -1.193440        -0.674417
 O        -0.474763        -0.645895        -1.086932
 C         0.330424        -0.596369         0.140530
 C         1.404520         0.553836         0.055070
 C         1.760229        -0.928448        -0.205671
 C        -0.468595        -0.901946         1.494151
 H        -3.244329        -1.612377         2.168158
 H        -0.915353        -3.192205         0.265054
 H        -2.704924        -2.970486        -0.095636
 H        -2.473494        -1.074828        -1.382039
 H         1.169471         1.316753        -0.774124
 H         1.727078         1.022407         0.943105
 H         1.946390        -1.261202        -1.294067
 H         2.505147        -1.426238         0.406926
 H         0.135808        -1.629154         2.003890
 H        -0.366110         0.062621         2.056812
