19
Iteration:  1837
 O        -2.948122        -1.195766         1.633740
 C        -1.754275        -1.321145         0.882119
 C        -1.655240        -2.558811        -0.004152
 C        -1.708750        -1.166215        -0.618795
 O        -0.527014        -0.533432        -1.080579
 C         0.305087        -0.460346         0.102952
 C         1.530264         0.421893        -0.022993
 C         1.610205        -1.105509        -0.081309
 C        -0.560212        -0.505489         1.350606
 H        -3.031141        -1.952533         2.233405
 H        -0.811639        -3.118571        -0.157279
 H        -2.527037        -3.103168        -0.239195
 H        -2.524264        -0.827373        -1.168470
 H         1.627629         1.047943        -0.929714
 H         1.847277         0.973557         0.834274
 H         1.693914        -1.666773        -0.993212
 H         1.985729        -1.497579         0.865397
 H         0.101864        -0.951239         2.078788
 H        -0.779551         0.520297         1.626035
