19
Iteration:  4869
 O        -2.805090        -0.811090         1.672164
 C        -1.782800        -1.337663         0.882568
 C        -2.108362        -2.584671        -0.150104
 C        -1.715916        -1.181205        -0.616859
 O        -0.400797        -1.058260        -1.043395
 C         0.446094        -0.610243         0.086712
 C         1.223459         0.635748        -0.001005
 C         1.890413        -0.644441        -0.101379
 C        -0.425421        -0.931388         1.428163
 H        -3.589527        -1.334700         1.563975
 H        -1.377195        -3.398430        -0.438192
 H        -3.214835        -2.775067        -0.243466
 H        -2.496269        -0.383954        -0.914572
 H         1.189681         1.366452        -0.900746
 H         1.250428         1.184204         0.919483
 H         2.423560        -1.029226        -1.030113
 H         2.691004        -0.946440         0.698014
 H         0.002032        -1.495107         2.298643
 H        -0.714756        -0.036119         1.954109
