19
Iteration:   778
 O        -2.894144        -0.954446         1.704209
 C        -1.749872        -1.388281         0.871470
 C        -1.999075        -2.633057        -0.049035
 C        -1.767439        -1.194074        -0.650194
 O        -0.472646        -0.837001        -1.099713
 C         0.369200        -0.486841         0.037623
 C         1.327180         0.675287        -0.042522
 C         1.884210        -0.737809         0.025045
 C        -0.351818        -0.883526         1.310684
 H        -3.259401        -1.806359         2.066886
 H        -1.321590        -3.461120        -0.083401
 H        -3.069939        -2.819897        -0.203263
 H        -2.675017        -0.565010        -0.885550
 H         1.294403         1.152457        -1.005674
 H         1.403258         1.330694         0.750099
 H         2.356639        -1.288635        -0.823995
 H         2.197566        -1.154654         0.935073
 H         0.229163        -1.514603         1.905176
 H        -0.640386        -0.024087         1.935264
