19
Iteration:  4303charge 0 multiplicity 1
 O        -2.961684        -1.104928         1.499186
 C        -1.727509        -1.318662         0.917644
 C        -1.534680        -2.601835         0.016070
 C        -1.716662        -1.262553        -0.616551
 O        -0.621542        -0.442309        -1.046937
 C         0.338961        -0.476737         0.078645
 C         1.524342         0.433419         0.069126
 C         1.611015        -1.201458        -0.089044
 C        -0.595150        -0.514417         1.342878
 H        -2.962289        -1.343373         2.418383
 H        -0.620873        -3.156834        -0.182918
 H        -2.453960        -3.124621        -0.092017
 H        -2.528398        -1.002856        -1.283476
 H         1.510738         1.065578        -0.789082
 H         2.035923         0.926974         1.012981
 H         1.796791        -1.493555        -1.090660
 H         1.933661        -1.832093         0.729916
 H        -0.085150        -1.082242         2.102353
 H        -0.915604         0.518002         1.611542
