19
Iteration:  3242
 O        -2.911885        -0.752504         1.445303
 C        -1.741577        -1.365362         0.947649
 C        -1.953158        -2.657613         0.014751
 C        -1.726130        -1.233690        -0.641653
 O        -0.458745        -0.816496        -1.082457
 C         0.365372        -0.529036         0.123868
 C         1.258053         0.634209         0.096715
 C         1.860013        -0.693973        -0.165202
 C        -0.383926        -1.090607         1.383426
 H        -3.108998        -1.282112         2.209533
 H        -1.085232        -3.324354         0.202040
 H        -2.998479        -2.965993         0.033346
 H        -2.503367        -0.520420        -0.939237
 H         1.027142         1.434632        -0.553547
 H         1.499985         1.135139         1.097018
 H         2.008140        -0.957158        -1.203568
 H         2.330194        -1.356131         0.577851
 H         0.096160        -2.052860         1.758938
 H        -0.287877        -0.363836         2.187775
