19
Iteration:  4821charge 0 multiplicity 1
 O        -2.959514        -0.693695         1.601837
 C        -1.880047        -1.297132         0.914088
 C        -1.883661        -2.586619        -0.006248
 C        -1.766539        -1.226671        -0.661836
 O        -0.440085        -0.914149        -1.109321
 C         0.418034        -0.585294         0.070323
 C         1.244108         0.657984         0.011454
 C         1.923965        -0.667386        -0.047863
 C        -0.397736        -1.153046         1.354680
 H        -3.001588        -0.927645         2.572280
 H        -0.979382        -3.156113        -0.015149
 H        -2.822072        -3.079034        -0.146398
 H        -2.493677        -0.971825        -1.395786
 H         1.161945         1.247762        -0.866600
 H         1.452333         1.214838         1.006930
 H         2.307410        -1.015297        -0.927413
 H         2.497945        -1.031222         0.751781
 H        -0.058294        -2.147501         1.439751
 H        -0.382572        -0.698809         2.381418
