19
Iteration:  1330
 O        -2.726860        -0.656990         1.702445
 C        -1.806956        -1.408194         0.914003
 C        -2.245077        -2.552716        -0.024802
 C        -1.741563        -1.241723        -0.691352
 O        -0.275952        -1.121913        -1.124166
 C         0.451701        -0.631690         0.055621
 C         1.011105         0.806499         0.051577
 C         1.941195        -0.432616        -0.050760
 C        -0.329315        -1.245366         1.273659
 H        -3.440760        -1.225710         2.005303
 H        -1.591123        -3.452089        -0.120001
 H        -3.353377        -2.754161        -0.212829
 H        -2.414317        -0.494604        -1.156172
 H         0.745874         1.454896        -0.704623
 H         0.944298         1.272256         0.995180
 H         2.457377        -0.881373        -0.840061
 H         2.641237        -0.655564         0.777748
 H         0.103302        -2.260311         1.748154
 H        -0.216016        -0.668443         2.217651
