19
Iteration:  3090
 O        -3.018758        -1.085973         1.461253
 C        -1.829183        -1.327115         0.863603
 C        -1.562691        -2.534708         0.141407
 C        -1.733792        -1.244016        -0.557787
 O        -0.588193        -0.432870        -1.043823
 C         0.331755        -0.432420         0.063148
 C         1.498962         0.452588         0.034478
 C         1.609409        -1.109905        -0.167338
 C        -0.475875        -0.732243         1.342291
 H        -2.892084        -1.435613         2.357432
 H        -0.475508        -2.812135         0.042872
 H        -2.269229        -3.392539         0.209832
 H        -2.613667        -0.870483        -0.938853
 H         1.654957         0.971020        -1.041299
 H         1.914638         0.895587         0.922939
 H         1.990736        -1.490007        -1.144184
 H         2.106847        -1.705740         0.600966
 H         0.081795        -1.479893         2.034004
 H        -0.675460         0.172200         1.933692
