19
Iteration:  4566charge 0 multiplicity 1
 O        -2.909443        -0.908428         1.592887
 C        -1.785689        -1.242414         0.784485
 C        -1.919029        -2.597196         0.079763
 C        -1.720646        -1.164422        -0.721216
 O        -0.424373        -0.773585        -1.054587
 C         0.371043        -0.585922         0.082018
 C         1.247409         0.590333         0.019180
 C         1.800052        -0.843543        -0.020240
 C        -0.388647        -0.918605         1.381560
 H        -2.978976        -1.721926         2.147637
 H        -1.302647        -3.512355         0.157965
 H        -3.005435        -2.788377         0.089879
 H        -2.430186        -0.757218        -1.338145
 H         1.288500         1.080266        -0.904981
 H         1.287893         1.289449         0.808068
 H         2.030331        -0.946323        -1.085558
 H         2.450997        -1.423222         0.746194
 H         0.180579        -1.755820         1.724788
 H        -0.244125        -0.000684         2.074369
