19
Iteration:  4428
 O        -3.023022        -1.097154         1.486491
 C        -1.766667        -1.333368         0.843640
 C        -1.499499        -2.599335         0.122023
 C        -1.684585        -1.212748        -0.656369
 O        -0.611254        -0.438525        -0.995635
 C         0.284677        -0.518897         0.117721
 C         1.517101         0.360348         0.084897
 C         1.565008        -1.103708        -0.189712
 C        -0.517143        -0.540195         1.313057
 H        -2.932117        -1.366362         2.405974
 H        -0.521101        -3.125612         0.171432
 H        -2.374865        -3.261113         0.057095
 H        -2.490526        -1.025858        -1.255889
 H         1.646137         1.000487        -0.787454
 H         1.893987         0.786865         1.012785
 H         1.897805        -1.486589        -1.161356
 H         2.028497        -1.701306         0.628938
 H         0.090869        -0.963006         2.164505
 H        -0.700517         0.501453         1.583291
