19
Iteration:  2439charge 0 multiplicity 1
 O        -2.954343        -0.949826         1.544984
 C        -1.771556        -1.365488         0.884009
 C        -1.960902        -2.556507         0.051823
 C        -1.667955        -1.195492        -0.639724
 O        -0.448332        -0.737190        -1.079555
 C         0.352224        -0.491618         0.129763
 C         1.400017         0.639875         0.060494
 C         1.762148        -0.845328        -0.156871
 C        -0.410795        -0.925183         1.377020
 H        -3.005397        -1.418215         2.404368
 H        -1.146542        -3.297396         0.003484
 H        -2.871068        -3.024724        -0.133431
 H        -2.624752        -0.899020        -1.302824
 H         1.456965         1.317791        -0.853124
 H         1.540878         1.093545         0.974691
 H         1.999560        -1.164059        -1.146773
 H         2.192769        -1.510270         0.522188
 H         0.146537        -1.718532         1.836794
 H        -0.494986        -0.098410         2.068475
