19
Iteration:  3717charge 0 multiplicity 1
 O        -2.810205        -0.837559         1.641000
 C        -1.819902        -1.254886         0.804819
 C        -1.908661        -2.520609         0.014536
 C        -1.769078        -1.141727        -0.670414
 O        -0.408023        -0.943915        -1.128715
 C         0.293294        -0.554635         0.069497
 C         1.207767         0.613265         0.037745
 C         1.833877        -0.698865         0.048343
 C        -0.417921        -1.066710         1.337971
 H        -3.114586        -1.626433         2.106997
 H        -0.897287        -2.944024        -0.096495
 H        -2.717280        -3.257286        -0.155207
 H        -2.537374        -0.694464        -1.147996
 H         1.208967         1.266193        -0.858337
 H         1.261960         1.027402         1.009257
 H         2.118326        -1.057697        -0.976847
 H         2.586390        -1.031412         0.756930
 H        -0.009196        -2.017426         1.691284
 H        -0.251884        -0.261961         2.063338
