19
Iteration:  2442charge 0 multiplicity 1
 O        -2.960574        -0.960997         1.539457
 C        -1.785122        -1.345513         0.905534
 C        -1.972269        -2.588524         0.041045
 C        -1.691688        -1.184938        -0.631761
 O        -0.447863        -0.747733        -1.079968
 C         0.361156        -0.499328         0.102357
 C         1.429695         0.623128         0.059983
 C         1.776384        -0.805577        -0.159231
 C        -0.407072        -0.906167         1.365842
 H        -3.015300        -1.412343         2.420153
 H        -1.033631        -3.217440         0.008735
 H        -2.940783        -3.079668        -0.152653
 H        -2.627613        -0.848396        -1.250873
 H         1.377246         1.263945        -0.792716
 H         1.615589         1.105765         1.060047
 H         2.022436        -1.137989        -1.174279
 H         2.121664        -1.597176         0.622042
 H         0.163585        -1.734855         1.930720
 H        -0.491913        -0.107581         2.067971
