19
Iteration:  4922
 O        -2.787779        -0.899964         1.665592
 C        -1.791894        -1.248119         0.870576
 C        -2.029544        -2.478824         0.041607
 C        -1.683869        -1.123126        -0.695366
 O        -0.336446        -0.909209        -1.113823
 C         0.404702        -0.673335         0.112210
 C         1.090480         0.640362        -0.059782
 C         1.807480        -0.726674         0.039071
 C        -0.359289        -1.093389         1.329453
 H        -3.594022        -0.706549         1.211088
 H        -1.269689        -3.271705         0.252208
 H        -3.111566        -2.761244        -0.001726
 H        -2.519299        -0.684033        -1.303195
 H         0.865237         1.083040        -1.114775
 H         1.291828         1.465938         0.635871
 H         2.173059        -1.263171        -0.908306
 H         2.272234        -0.784543         1.097854
 H         0.024773        -1.949252         1.848603
 H        -0.199373        -0.345272         2.104862
