19
Iteration:  4678charge 0 multiplicity 1
 O        -2.836408        -0.784187         1.626719
 C        -1.814862        -1.378652         0.862558
 C        -2.034462        -2.626148        -0.190223
 C        -1.814753        -1.157813        -0.561140
 O        -0.417370        -0.986649        -1.044024
 C         0.344803        -0.600931         0.070959
 C         1.309344         0.717474        -0.012195
 C         1.868168        -0.724636         0.023921
 C        -0.380125        -0.948584         1.358767
 H        -3.181472        -1.411902         2.316371
 H        -1.084560        -3.206759        -0.340187
 H        -3.022467        -3.108045        -0.065831
 H        -2.669219        -0.570984        -1.182919
 H         1.361848         1.389626        -0.997292
 H         1.550659         1.323881         0.894310
 H         2.420340        -1.186173        -0.882536
 H         2.456301        -1.106612         0.880684
 H         0.170899        -1.754991         1.753174
 H        -0.489932        -0.000535         1.970136
