19
Iteration:  4970
 O        -2.713022        -0.581634         1.601049
 C        -1.794753        -1.391515         0.819434
 C        -2.049528        -2.708741         0.025569
 C        -1.721794        -1.303931        -0.670822
 O        -0.428775        -1.008966        -1.049540
 C         0.335592        -0.539112         0.101088
 C         1.278288         0.728070         0.237588
 C         1.775823        -0.649923        -0.163437
 C        -0.390424        -1.099607         1.302339
 H        -3.568153        -0.636647         1.083148
 H        -1.218690        -3.417521        -0.129150
 H        -3.028258        -3.084422        -0.251855
 H        -2.577773        -0.894399        -1.222547
 H         1.137601         1.559114        -0.394905
 H         1.458366         1.042765         1.236656
 H         1.969682        -0.714816        -1.234596
 H         2.414305        -1.221507         0.631125
 H         0.229257        -1.854827         1.859426
 H        -0.546320        -0.346149         2.082627
