19
Iteration:  2042
 O        -3.064189        -1.054157         1.475225
 C        -1.842970        -1.366314         0.938715
 C        -1.791386        -2.604560         0.131631
 C        -1.702310        -1.130855        -0.592372
 O        -0.518569        -0.593746        -1.030959
 C         0.424428        -0.479574         0.092050
 C         1.476973         0.565862         0.015457
 C         1.797453        -0.947793        -0.233758
 C        -0.461742        -0.852777         1.390183
 H        -3.285127        -1.592829         2.276585
 H        -0.883784        -3.212994         0.120321
 H        -2.742217        -3.066039         0.019904
 H        -2.558558        -0.723676        -1.278311
 H         1.449384         1.088541        -0.949612
 H         1.852710         1.293482         0.810936
 H         2.053417        -1.180711        -1.325720
 H         2.375830        -1.572508         0.472523
 H         0.046343        -1.519319         2.049775
 H        -0.606105         0.054731         2.091635
