19
Iteration:  1113charge 0 multiplicity 1
 O        -2.833943        -0.865373         1.613458
 C        -1.748683        -1.300857         0.897405
 C        -2.073922        -2.501755        -0.073711
 C        -1.774065        -1.132595        -0.595149
 O        -0.330423        -0.982103        -1.095150
 C         0.488744        -0.719563         0.158574
 C         1.045804         0.693471        -0.021148
 C         1.902936        -0.584628        -0.148010
 C        -0.412604        -1.076253         1.417537
 H        -3.118217        -1.569190         2.213613
 H        -1.183980        -3.226944         0.015915
 H        -3.119452        -2.880928        -0.092595
 H        -2.492796        -0.458530        -1.139470
 H         0.786630         1.099468        -0.958578
 H         1.294069         1.310974         0.779548
 H         2.265059        -0.926362        -1.143201
 H         2.524509        -0.888997         0.649528
 H         0.026151        -1.906589         2.027809
 H        -0.294169        -0.126011         2.028130
