19
Iteration:  4030charge 0 multiplicity 1
 O        -2.901401        -1.126322         1.584296
 C        -1.730537        -1.318490         0.875422
 C        -1.692172        -2.584366        -0.072445
 C        -1.788627        -1.151403        -0.636084
 O        -0.519201        -0.580702        -1.028449
 C         0.330426        -0.457748         0.103523
 C         1.448008         0.404285        -0.057859
 C         1.621866        -1.084821         0.078458
 C        -0.461835        -0.527609         1.301348
 H        -3.033457        -1.755154         2.297729
 H        -0.773096        -3.175809        -0.347607
 H        -2.702909        -3.021724        -0.075629
 H        -2.586520        -0.798999        -1.420600
 H         1.492436         0.858424        -1.045508
 H         1.598782         1.054029         0.871644
 H         1.939089        -1.524156        -0.823288
 H         2.071084        -1.611536         0.947747
 H         0.096466        -1.027073         2.092616
 H        -0.908692         0.366884         1.801719
