19
Iteration:  1565
 O        -2.825907        -0.775011         1.531362
 C        -1.765712        -1.381347         0.832523
 C        -1.858646        -2.626594         0.026732
 C        -1.702929        -1.218693        -0.624464
 O        -0.479186        -0.693666        -1.106045
 C         0.341107        -0.638483         0.113051
 C         1.160316         0.581173         0.075508
 C         1.760089        -0.811029        -0.107839
 C        -0.340192        -0.978724         1.400687
 H        -3.137623        -1.399517         2.237533
 H        -0.958732        -3.195441        -0.057931
 H        -2.754279        -3.094725         0.015132
 H        -2.670139        -0.757777        -1.042358
 H         0.904004         1.221561        -0.764681
 H         1.361995         1.311672         0.838436
 H         2.079600        -1.235085        -1.057430
 H         2.358802        -1.099233         0.707758
 H         0.215491        -1.833715         1.932130
 H        -0.453470        -0.123352         2.086575
