19
Iteration:  1477charge 0 multiplicity 1
 O        -2.823592        -0.809840         1.677087
 C        -1.775541        -1.340450         0.874094
 C        -1.912315        -2.534454        -0.110816
 C        -1.779279        -1.116484        -0.640565
 O        -0.462055        -0.907801        -1.116482
 C         0.447801        -0.683981         0.100888
 C         1.120453         0.695484        -0.033073
 C         1.885180        -0.734084        -0.021548
 C        -0.395786        -1.056496         1.412302
 H        -3.354780        -1.657233         1.783737
 H        -1.234072        -3.254827        -0.328771
 H        -2.910655        -2.904895        -0.094982
 H        -2.739731        -0.708125        -1.126521
 H         1.034241         1.144385        -1.042906
 H         1.318050         1.427518         0.890535
 H         2.247441        -1.274629        -0.839319
 H         2.581156        -0.849715         0.852243
 H         0.259187        -1.691823         2.243209
 H        -0.521939        -0.097720         2.018107
