19
Iteration:  2660
 O        -3.043257        -1.326437         1.589353
 C        -1.802436        -1.320277         0.974963
 C        -1.540913        -2.429530         0.007237
 C        -1.764008        -1.141024        -0.671565
 O        -0.515322        -0.448168        -1.028928
 C         0.334039        -0.382804         0.067332
 C         1.626373         0.330506        -0.124938
 C         1.555351        -1.180108        -0.037015
 C        -0.594164        -0.484724         1.394754
 H        -3.006689        -2.005967         2.298649
 H        -0.472830        -2.842571        -0.185792
 H        -2.367128        -3.162200        -0.004041
 H        -2.515926        -0.756211        -1.227596
 H         1.821472         0.732283        -1.200686
 H         1.989820         0.855621         0.714729
 H         1.613784        -1.773727        -1.045544
 H         2.089481        -1.807272         0.751290
 H         0.152394        -0.640472         2.222118
 H        -0.959079         0.501256         1.683704
