19
Iteration:   472
 O        -2.982731        -1.055500         1.604194
 C        -1.831791        -1.351563         0.874973
 C        -1.472201        -2.586165         0.075097
 C        -1.706406        -1.303012        -0.627550
 O        -0.613217        -0.448454        -0.997350
 C         0.326950        -0.424218         0.150134
 C         1.460282         0.473271        -0.232453
 C         1.631204        -1.046151        -0.061976
 C        -0.544265        -0.737581         1.334691
 H        -2.620177        -1.043431         2.528301
 H        -0.382371        -2.885917         0.254635
 H        -2.321981        -3.353225        -0.201451
 H        -2.577310        -1.279021        -1.314194
 H         1.295365         0.871787        -1.196982
 H         1.971738         1.157894         0.366610
 H         1.930178        -1.881164        -0.824618
 H         2.019868        -1.169509         0.918838
 H        -0.199424        -1.440455         2.073817
 H        -0.767631         0.206290         1.831100
