19
Iteration:  1980
 O        -2.839567        -0.949106         1.739854
 C        -1.787207        -1.275210         0.861351
 C        -1.772399        -2.506377        -0.130820
 C        -1.779077        -1.187060        -0.675587
 O        -0.492339        -0.827007        -1.107857
 C         0.263301        -0.493470         0.061027
 C         1.367327         0.584304         0.014077
 C         1.678573        -0.951487         0.023460
 C        -0.433397        -0.823039         1.340034
 H        -3.149301        -1.736993         2.252708
 H        -0.774536        -3.061834        -0.364452
 H        -2.545288        -3.296835        -0.320488
 H        -2.568513        -0.653802        -1.309260
 H         1.566555         1.300731        -0.829068
 H         1.628288         1.171003         1.040848
 H         1.985355        -1.151888        -1.054104
 H         2.214230        -1.267850         0.998215
 H         0.192799        -1.653097         1.788220
 H        -0.500161         0.004048         2.065010
