19
Iteration:  1532
 O        -3.007405        -0.874056         1.608330
 C        -1.849519        -1.327632         0.868101
 C        -2.013386        -2.617682        -0.014700
 C        -1.757745        -1.247156        -0.633287
 O        -0.465086        -0.891780        -1.102741
 C         0.398227        -0.563689         0.115950
 C         1.357196         0.704650         0.074760
 C         1.954350        -0.707116        -0.174260
 C        -0.353854        -0.926204         1.390358
 H        -2.900391        -1.322493         2.475422
 H        -1.140537        -3.198793        -0.154113
 H        -2.925416        -3.077041         0.011592
 H        -2.555246        -0.662249        -1.205233
 H         1.160183         1.190489        -0.870371
 H         1.505186         1.086227         1.121835
 H         2.228149        -1.020259        -1.159732
 H         2.616519        -1.059891         0.603781
 H         0.245283        -1.888319         1.661444
 H        -0.313898        -0.170121         2.200173
