19
Iteration:  3161
 O        -2.981091        -1.032345         1.619806
 C        -1.716445        -1.290952         0.924414
 C        -1.882047        -2.497450         0.008392
 C        -1.799963        -1.178868        -0.642278
 O        -0.484254        -0.787169        -1.112081
 C         0.363329        -0.499992         0.055744
 C         1.349869         0.603331        -0.027534
 C         1.848872        -0.904311        -0.007853
 C        -0.415300        -0.820189         1.371649
 H        -3.321413        -1.878994         1.937413
 H        -1.108807        -3.145026        -0.307636
 H        -2.828970        -3.038830         0.029774
 H        -2.579578        -0.611818        -1.153995
 H         1.518409         1.041303        -1.020770
 H         1.502402         1.206418         0.826469
 H         2.345230        -1.136681        -0.990618
 H         2.386784        -1.322116         0.788758
 H         0.150275        -1.589410         1.849987
 H        -0.413388         0.056035         2.028816
