19
Iteration:  3285
 O        -2.869107        -0.750404         1.637643
 C        -1.852344        -1.303669         0.830868
 C        -2.005048        -2.645343        -0.018344
 C        -1.662542        -1.151680        -0.622432
 O        -0.371764        -0.899455        -1.174948
 C         0.393160        -0.623155         0.091345
 C         1.156309         0.615598         0.118050
 C         1.872804        -0.671503        -0.113494
 C        -0.380115        -1.042960         1.365937
 H        -3.155589        -1.441096         2.243203
 H        -1.160454        -3.348256         0.253570
 H        -3.067492        -2.948584        -0.189158
 H        -2.556342        -0.807037        -1.145006
 H         0.969397         1.298870        -0.694510
 H         1.191382         1.111664         1.153557
 H         2.370785        -0.877534        -1.091342
 H         2.615488        -0.994507         0.667457
 H         0.056055        -2.015210         1.721089
 H        -0.481310        -0.298721         2.148814
