19
Iteration:  3810
 O        -2.915848        -0.929344         1.604256
 C        -1.856219        -1.299479         0.836259
 C        -1.713507        -2.500948         0.045240
 C        -1.697683        -1.141711        -0.607613
 O        -0.464165        -0.667947        -1.098054
 C         0.375526        -0.664863         0.075961
 C         1.208096         0.562869         0.089227
 C         1.820374        -0.897975        -0.114271
 C        -0.460737        -0.887377         1.315620
 H        -3.188983        -1.798425         1.971748
 H        -0.960157        -3.306902         0.067887
 H        -2.628910        -3.029299        -0.001690
 H        -2.580406        -0.909435        -1.247721
 H         1.166895         1.027034        -0.953517
 H         1.618271         1.082843         0.963396
 H         2.196837        -1.400094        -0.969721
 H         2.281734        -1.282890         0.837949
 H        -0.122575        -1.582619         2.102460
 H        -0.622782         0.125640         1.743400
