19
Iteration:  2543charge 0 multiplicity 1
 O        -3.020845        -1.092521         1.536387
 C        -1.780073        -1.388534         0.962095
 C        -1.622350        -2.585041         0.018861
 C        -1.806855        -1.122257        -0.571811
 O        -0.559620        -0.457710        -0.992989
 C         0.372570        -0.505569         0.049151
 C         1.468437         0.501191        -0.052108
 C         1.763591        -1.115388        -0.115613
 C        -0.491867        -0.694964         1.324957
 H        -3.267896        -1.847000         2.073666
 H        -0.606429        -3.005626        -0.156990
 H        -2.540772        -3.175031        -0.120746
 H        -2.615087        -0.913752        -1.073426
 H         1.457643         1.207822        -0.972583
 H         1.721195         1.001041         0.835379
 H         1.861839        -1.812909        -1.038365
 H         2.216863        -1.528445         0.819445
 H         0.120171        -1.107799         2.185031
 H        -0.717895         0.326679         1.668950
