19
Iteration:  1373
 O        -2.820535        -0.675083         1.521177
 C        -1.762065        -1.374542         0.872782
 C        -2.050406        -2.544705        -0.008275
 C        -1.648278        -1.126695        -0.640517
 O        -0.356219        -1.016757        -1.117778
 C         0.389241        -0.612805         0.130061
 C         0.944930         0.703889         0.077202
 C         1.845674        -0.608824        -0.146360
 C        -0.280961        -1.238597         1.419527
 H        -2.904630        -0.993147         2.447100
 H        -1.201824        -3.268846        -0.185667
 H        -3.015059        -3.072879         0.161388
 H        -2.474164        -0.482223        -0.999925
 H         0.637818         1.354427        -0.672970
 H         1.289426         1.158422         0.975817
 H         2.227355        -0.835497        -1.091456
 H         2.468519        -0.735825         0.767790
 H         0.083162        -2.399840         1.647025
 H        -0.344432        -0.622112         2.334308
