19
Iteration:  2112charge 0 multiplicity 1
 O        -2.998189        -1.196780         1.610136
 C        -1.777428        -1.366809         0.870602
 C        -1.598269        -2.641218         0.032116
 C        -1.785096        -1.171991        -0.592295
 O        -0.647557        -0.386860        -1.082831
 C         0.334977        -0.352472         0.014542
 C         1.643535         0.420833         0.034792
 C         1.625289        -1.147395        -0.082714
 C        -0.530676        -0.556905         1.286638
 H        -2.834833        -1.689004         2.443601
 H        -0.650570        -3.196039         0.058971
 H        -2.575044        -3.155905        -0.139132
 H        -2.532063        -1.188279        -1.254050
 H         1.976527         1.039775        -0.869814
 H         1.946514         0.855305         0.960315
 H         2.125009        -1.766630        -0.824980
 H         1.914186        -1.593037         0.851714
 H         0.059603        -1.100403         2.098896
 H        -0.869273         0.342210         1.768163
