19
Iteration:  2342
 O        -2.895511        -0.951013         1.650524
 C        -1.841757        -1.315435         0.804096
 C        -1.921556        -2.599421        -0.054517
 C        -1.684639        -1.186594        -0.627290
 O        -0.433336        -0.747100        -1.079503
 C         0.377821        -0.538497         0.141017
 C         1.377796         0.557070         0.057319
 C         1.832212        -0.825085        -0.139533
 C        -0.513913        -0.818375         1.367824
 H        -2.878567        -1.542190         2.437276
 H        -1.180877        -3.370806        -0.036469
 H        -2.893583        -3.084051        -0.158714
 H        -2.603760        -0.620115        -1.171247
 H         1.314151         1.095274        -0.880106
 H         1.571241         1.062226         0.961644
 H         1.984904        -1.291652        -1.089468
 H         2.480929        -1.286258         0.534414
 H        -0.082375        -1.664944         1.978500
 H        -0.769843        -0.000361         1.999853
