19
Iteration:  4044charge 0 multiplicity 1
 O        -2.890336        -0.976936         1.613151
 C        -1.733573        -1.376841         0.833157
 C        -1.712121        -2.638595        -0.157030
 C        -1.751867        -1.183968        -0.594495
 O        -0.578575        -0.630670        -1.086767
 C         0.245853        -0.433873         0.046539
 C         1.478378         0.472731         0.022151
 C         1.782132        -1.042415         0.050759
 C        -0.580498        -0.637945         1.373127
 H        -2.915557        -1.639305         2.334409
 H        -0.813174        -3.193328        -0.231511
 H        -2.532142        -3.328085        -0.071705
 H        -2.656023        -0.694635        -0.834368
 H         1.820502         0.937380        -0.929614
 H         1.768784         1.053941         0.767033
 H         2.011552        -1.622619        -0.880282
 H         2.014840        -1.454451         1.015971
 H         0.041034        -1.190284         2.070006
 H        -0.793806         0.357101         1.742900
