19
Iteration:   328charge 0 multiplicity 1
 O        -2.941676        -0.849559         1.606156
 C        -1.733269        -1.420932         0.953385
 C        -1.821694        -2.584788         0.030014
 C        -1.757451        -1.226227        -0.579170
 O        -0.515430        -0.783698        -1.019391
 C         0.392090        -0.603070         0.054954
 C         1.260006         0.636059        -0.127418
 C         1.885541        -0.755872        -0.136576
 C        -0.415746        -0.899452         1.399561
 H        -3.667760        -1.401050         1.241405
 H        -0.885128        -3.345918        -0.017290
 H        -2.666465        -3.334309        -0.004301
 H        -2.721110        -0.801108        -0.833196
 H         1.146975         1.169677        -1.078484
 H         1.380811         1.387227         0.721835
 H         2.241872        -1.133884        -1.110084
 H         2.548094        -1.000178         0.801583
 H         0.027082        -1.694603         1.927399
 H        -0.613040        -0.053605         2.130754
