19
Iteration:  4750charge 0 multiplicity 1
 O        -2.925521        -0.770618         1.630683
 C        -1.889537        -1.321089         0.907997
 C        -1.932111        -2.565262        -0.020151
 C        -1.722372        -1.143842        -0.610114
 O        -0.382250        -0.992863        -1.043458
 C         0.424388        -0.591581         0.043714
 C         1.258696         0.669806         0.065139
 C         1.894253        -0.684999        -0.159600
 C        -0.465959        -1.026294         1.365271
 H        -3.497941        -1.563721         1.845467
 H        -1.007796        -3.176630        -0.050750
 H        -2.918937        -2.995983        -0.219052
 H        -2.459651        -0.838844        -1.307658
 H         1.421935         1.408870        -0.755411
 H         1.303298         1.145299         1.026420
 H         2.348232        -0.933756        -1.203764
 H         2.529146        -1.189180         0.585399
 H        -0.121158        -2.075048         1.812223
 H        -0.291128        -0.197889         2.069146
