19
Iteration:  4976charge 0 multiplicity 1
 O        -2.705326        -0.601895         1.569139
 C        -1.784010        -1.413338         0.804882
 C        -2.017349        -2.638029         0.079691
 C        -1.678073        -1.326943        -0.686139
 O        -0.404798        -0.972244        -1.046370
 C         0.322557        -0.512844         0.106082
 C         1.227487         0.683888         0.234708
 C         1.788092        -0.645429        -0.198228
 C        -0.427271        -1.129980         1.334785
 H        -3.586994        -0.600067         1.169230
 H        -1.399812        -3.534863        -0.089488
 H        -3.095509        -2.958610         0.056114
 H        -2.501115        -0.847653        -1.290588
 H         1.241688         1.534085        -0.489851
 H         1.395943         0.968278         1.338046
 H         1.857030        -0.660052        -1.279556
 H         2.283137        -1.206227         0.619311
 H         0.117459        -1.981862         1.722254
 H        -0.523449        -0.329240         2.074413
