19
Iteration:  1715
 O        -3.058028        -1.128881         1.612273
 C        -1.806518        -1.305470         0.889502
 C        -1.512047        -2.586875         0.039693
 C        -1.695939        -1.197980        -0.580964
 O        -0.680989        -0.403702        -1.084900
 C         0.353839        -0.532463         0.091758
 C         1.541383         0.416681         0.001667
 C         1.698541        -1.148735        -0.146526
 C        -0.515053        -0.589572         1.331346
 H        -3.185336        -1.876245         2.251114
 H        -0.510507        -3.064417         0.239636
 H        -2.436953        -3.115413        -0.139714
 H        -2.601075        -1.132129        -1.326411
 H         1.672877         1.068055        -0.896272
 H         2.012151         0.957441         0.803875
 H         2.046149        -1.535390        -1.165288
 H         2.130771        -1.475953         0.777719
 H        -0.093977        -1.013939         2.204245
 H        -0.803227         0.456237         1.595392
