19
Iteration:  1256charge 0 multiplicity 1
 O        -2.713321        -0.649248         1.635381
 C        -1.798117        -1.353188         0.878378
 C        -2.268642        -2.510067        -0.049555
 C        -1.654781        -1.248870        -0.660990
 O        -0.313792        -1.096612        -1.018566
 C         0.515364        -0.703857         0.146917
 C         0.928843         0.780534         0.006236
 C         1.973491        -0.363124        -0.158529
 C        -0.351322        -1.354633         1.379729
 H        -3.476841        -1.212360         1.923050
 H        -1.685151        -3.469018        -0.178076
 H        -3.423495        -2.656097        -0.185797
 H        -2.431181        -0.773672        -1.230119
 H         0.563339         1.316864        -0.819380
 H         0.900167         1.335780         0.917368
 H         2.471958        -0.516332        -1.096474
 H         2.725999        -0.659134         0.685147
 H         0.140208        -2.280682         1.576615
 H        -0.282393        -0.710150         2.336640
