19
Iteration:  4687
 O        -2.770474        -0.810067         1.619012
 C        -1.754760        -1.417469         0.869150
 C        -2.073729        -2.564227        -0.135837
 C        -1.783700        -1.171295        -0.615123
 O        -0.380930        -0.989041        -1.118526
 C         0.355566        -0.516041         0.105683
 C         1.269051         0.674084        -0.015715
 C         1.800997        -0.737061         0.036103
 C        -0.369903        -0.949651         1.397014
 H        -3.367688        -1.388610         2.155294
 H        -1.243149        -3.236849        -0.445800
 H        -2.999199        -3.178405        -0.113271
 H        -2.436236        -0.334611        -0.957369
 H         1.194831         1.201497        -0.983070
 H         1.498051         1.375126         0.717897
 H         2.023248        -1.277451        -0.965267
 H         2.241921        -1.004993         1.024339
 H         0.024521        -1.667494         2.051509
 H        -0.636741        -0.120332         2.110473
