19
Iteration:  4972
 O        -2.710619        -0.585810         1.590839
 C        -1.789874        -1.401475         0.813183
 C        -2.039253        -2.685453         0.047988
 C        -1.705660        -1.308561        -0.683370
 O        -0.422004        -0.998118        -1.045677
 C         0.330202        -0.527155         0.101978
 C         1.265253         0.710809         0.243553
 C         1.786175        -0.655174        -0.171865
 C        -0.408506        -1.114772         1.308113
 H        -3.563554        -0.625126         1.112880
 H        -1.297921        -3.458345        -0.144219
 H        -3.026712        -3.042647        -0.140109
 H        -2.508363        -0.911879        -1.205678
 H         1.165052         1.592885        -0.446179
 H         1.434039         1.001586         1.222811
 H         1.896922        -0.663816        -1.257279
 H         2.287708        -1.154253         0.581631
 H         0.222035        -1.906084         1.832459
 H        -0.545951        -0.303792         2.111157
