19
Iteration:  3769
 O        -2.946694        -0.860795         1.430803
 C        -1.786535        -1.390670         0.853995
 C        -1.912958        -2.676796        -0.004798
 C        -1.818409        -1.221298        -0.607247
 O        -0.536936        -0.800723        -0.963037
 C         0.424862        -0.511169         0.156968
 C         1.443566         0.725743         0.091207
 C         1.863689        -0.758947        -0.172687
 C        -0.424396        -0.993682         1.356450
 H        -3.060726        -1.068764         2.394633
 H        -1.079352        -3.394570         0.068749
 H        -2.944284        -2.994007        -0.021197
 H        -2.609856        -0.837274        -1.116011
 H         1.269994         1.467969        -0.757671
 H         1.866756         1.132456         1.013184
 H         1.972494        -1.056873        -1.204772
 H         2.492531        -1.437193         0.419103
 H         0.051763        -1.802447         1.890248
 H        -0.512697        -0.095683         2.039269
