19
Iteration:  4856charge 0 multiplicity 1
 O        -2.820225        -0.809749         1.597682
 C        -1.710507        -1.385232         0.866402
 C        -2.070026        -2.490593        -0.037696
 C        -1.733170        -1.188080        -0.664900
 O        -0.378880        -0.988950        -1.066637
 C         0.353514        -0.631268         0.120114
 C         1.132893         0.636402         0.055432
 C         1.921640        -0.732233        -0.085829
 C        -0.350797        -0.900750         1.419801
 H        -3.480997        -1.546699         1.752935
 H        -1.573986        -3.430872        -0.290868
 H        -3.145043        -2.630799        -0.030218
 H        -2.416546        -0.723071        -1.313858
 H         0.956120         1.271982        -0.900355
 H         1.234279         1.222737         0.985238
 H         2.111673        -0.948738        -1.164480
 H         2.437013        -1.092693         0.751818
 H         0.173761        -1.659316         1.923275
 H        -0.431443         0.019152         2.014300
