19
Iteration:  2323
 O        -2.962376        -0.851376         1.686084
 C        -1.836585        -1.395239         0.896038
 C        -1.759441        -2.526001        -0.199644
 C        -1.808535        -1.173488        -0.643748
 O        -0.522649        -0.726323        -0.974944
 C         0.410524        -0.597386         0.089906
 C         1.307495         0.581917        -0.007687
 C         1.820662        -0.919755        -0.077614
 C        -0.403019        -0.884271         1.363776
 H        -3.193946        -1.568546         2.293978
 H        -0.765568        -3.022883        -0.273483
 H        -2.652874        -3.202670        -0.272732
 H        -2.528051        -0.989832        -1.491875
 H         1.261347         1.179128        -1.020869
 H         1.667486         0.957520         0.883234
 H         2.394188        -1.219733        -1.035998
 H         2.490490        -1.251812         0.768813
 H         0.154946        -1.364845         2.274551
 H        -0.659564         0.108300         1.749819
