19
Iteration:  3466
 O        -2.748743        -0.609724         1.645638
 C        -1.729651        -1.362695         0.838398
 C        -2.123829        -2.526123        -0.131309
 C        -1.767799        -1.185852        -0.690611
 O        -0.305035        -1.105070        -1.041507
 C         0.405648        -0.684422         0.126834
 C         0.921659         0.706352         0.110907
 C         1.893353        -0.473667        -0.045729
 C        -0.305755        -1.260821         1.339363
 H        -2.796451        -1.247837         2.408275
 H        -1.568860        -3.462720        -0.430743
 H        -3.255312        -2.681650        -0.163939
 H        -2.434279        -0.579838        -1.304160
 H         0.771269         1.223355        -0.892947
 H         1.075280         1.443517         0.931666
 H         2.401059        -0.760430        -1.075072
 H         2.459403        -0.617757         0.860393
 H         0.043202        -2.357883         1.424966
 H        -0.159183        -0.671251         2.304341
