19
Iteration:   742
 O        -2.912037        -1.040053         1.750142
 C        -1.824378        -1.261068         0.819279
 C        -1.785915        -2.505289        -0.099350
 C        -1.772354        -1.151306        -0.663459
 O        -0.457954        -0.931182        -1.021241
 C         0.394262        -0.538269         0.164798
 C         1.251745         0.615998        -0.004757
 C         1.836416        -0.833621        -0.186924
 C        -0.412788        -0.744191         1.399073
 H        -3.467112        -1.844879         1.668681
 H        -0.897436        -3.242544        -0.161672
 H        -2.706727        -3.082089        -0.171005
 H        -2.252085        -0.429337        -1.287805
 H         1.051203         1.062304        -0.952020
 H         1.494114         1.194599         0.902891
 H         1.853761        -1.103079        -1.229958
 H         2.397037        -1.305120         0.708161
 H        -0.021398        -1.487314         2.088979
 H        -0.583232         0.192755         1.936322
