19
Iteration:  4897
 O        -2.842748        -0.901308         1.766713
 C        -1.843688        -1.315355         0.877320
 C        -2.028271        -2.476309        -0.073115
 C        -1.740555        -1.125471        -0.737187
 O        -0.339957        -1.066245        -0.990630
 C         0.413095        -0.535339         0.118458
 C         1.241096         0.672930        -0.102754
 C         1.865319        -0.696614        -0.028008
 C        -0.403390        -1.025365         1.361988
 H        -3.713468        -0.873634         1.349267
 H        -1.346201        -3.246160        -0.350731
 H        -3.050438        -2.718146        -0.204434
 H        -2.400450        -0.630485        -1.362364
 H         1.096353         1.135912        -1.087253
 H         1.315867         1.460744         0.634639
 H         2.185197        -1.100159        -0.989365
 H         2.418970        -0.891262         0.812522
 H         0.069668        -1.886755         1.821277
 H        -0.495013        -0.354919         2.272599
