19
Iteration:  3563
 O        -2.644657        -0.637036         1.583133
 C        -1.782303        -1.342892         0.802126
 C        -2.067668        -2.585660        -0.034291
 C        -1.725201        -1.191914        -0.663653
 O        -0.406251        -1.087716        -1.094464
 C         0.357852        -0.609402         0.018009
 C         1.052503         0.758275         0.143821
 C         1.821215        -0.513225         0.010594
 C        -0.325424        -1.285986         1.355447
 H        -3.419270        -1.147936         1.912913
 H        -1.431823        -3.444871         0.207274
 H        -3.111683        -2.953386        -0.147610
 H        -2.514601        -0.617074        -1.173881
 H         1.005194         1.585457        -0.623598
 H         1.170001         1.282137         1.135024
 H         2.237861        -0.667449        -1.044840
 H         2.325448        -0.871061         0.891966
 H         0.102570        -2.262624         1.430767
 H        -0.318217        -0.653330         2.304200
