19
Iteration:  3077
 O        -3.103776        -1.124558         1.472037
 C        -1.724642        -1.302009         0.923482
 C        -1.454442        -2.578826         0.109271
 C        -1.778877        -1.179556        -0.612091
 O        -0.679355        -0.384085        -1.014231
 C         0.286106        -0.466772         0.033657
 C         1.556937         0.362625         0.012578
 C         1.677419        -1.150999        -0.137623
 C        -0.447765        -0.624390         1.377217
 H        -3.287043        -1.513529         2.375943
 H        -0.495094        -3.000688         0.066717
 H        -2.250290        -3.285493         0.079415
 H        -2.618580        -1.118295        -1.278345
 H         1.803253         0.921387        -0.932924
 H         1.758192         0.895208         0.886629
 H         1.823648        -1.355060        -1.209175
 H         2.028551        -1.776192         0.625776
 H         0.191826        -1.280071         2.071128
 H        -0.625506         0.347497         1.809950
