19
Iteration:  4380charge 0 multiplicity 1
 O        -2.977260        -1.256627         1.589748
 C        -1.783451        -1.289094         0.825024
 C        -1.399118        -2.454757        -0.042996
 C        -1.756399        -1.132152        -0.585745
 O        -0.581444        -0.406360        -0.986653
 C         0.314499        -0.389735         0.107135
 C         1.557024         0.272324        -0.171599
 C         1.542943        -1.259996         0.102206
 C        -0.613367        -0.456688         1.320944
 H        -3.040309        -2.154851         1.974568
 H        -0.387671        -2.802526        -0.142792
 H        -2.190306        -3.198677        -0.058385
 H        -2.666020        -1.042382        -1.324632
 H         1.690933         0.601568        -1.207823
 H         2.073048         1.042008         0.487089
 H         1.695965        -2.071849        -0.637059
 H         1.797677        -1.622150         1.127325
 H        -0.168728        -0.792236         2.257560
 H        -1.027952         0.587164         1.518583
