19
Iteration:  4110
 O        -3.067800        -0.862397         1.486539
 C        -1.816341        -1.315162         0.889687
 C        -1.724397        -2.600439         0.027262
 C        -1.724369        -1.198239        -0.589766
 O        -0.446114        -0.708746        -0.983577
 C         0.391977        -0.559073         0.180321
 C         1.365008         0.544468         0.061057
 C         1.784802        -0.873685        -0.255753
 C        -0.410219        -0.852313         1.367266
 H        -3.470516        -1.635723         1.896407
 H        -0.828404        -3.153341         0.095188
 H        -2.588150        -3.250964         0.058387
 H        -2.469272        -0.863864        -1.202950
 H         1.293494         1.122708        -0.823777
 H         1.851432         0.936418         0.865470
 H         1.594497        -1.203893        -1.315345
 H         2.408178        -1.382597         0.490818
 H        -0.163981        -1.725148         1.952002
 H        -0.613203        -0.035396         2.076912
