19
Iteration:  4026
 O        -2.923546        -1.162692         1.588069
 C        -1.711446        -1.316988         0.833884
 C        -1.698070        -2.522468        -0.037444
 C        -1.778456        -1.156606        -0.648378
 O        -0.519596        -0.568895        -1.028714
 C         0.324657        -0.471031         0.092244
 C         1.470805         0.425070        -0.065128
 C         1.605484        -1.116966         0.070540
 C        -0.461385        -0.533205         1.342913
 H        -3.049270        -1.797428         2.329538
 H        -0.816074        -3.097666        -0.290157
 H        -2.676881        -3.017000        -0.114205
 H        -2.539646        -0.953799        -1.360060
 H         1.508398         0.840276        -1.062505
 H         1.633706         1.112979         0.842102
 H         1.942118        -1.585564        -0.885802
 H         2.093059        -1.525767         0.936275
 H         0.030867        -1.008237         2.232542
 H        -0.866771         0.453836         1.659903
