19
Iteration:  3230
 O        -2.893177        -0.772188         1.483271
 C        -1.811486        -1.445913         0.859400
 C        -1.966041        -2.575760         0.015892
 C        -1.670329        -1.261063        -0.547542
 O        -0.435014        -0.765743        -0.979913
 C         0.386572        -0.588970         0.090316
 C         1.209243         0.688689         0.097267
 C         1.840825        -0.760285        -0.196054
 C        -0.365413        -1.035769         1.323428
 H        -3.273179        -1.046016         2.355360
 H        -1.305999        -3.436392        -0.254221
 H        -2.969880        -2.992808        -0.157901
 H        -2.545362        -0.857609        -1.100641
 H         1.256607         1.250555        -0.820991
 H         1.445865         1.068918         1.147072
 H         2.148470        -1.122366        -1.146212
 H         2.581310        -1.011265         0.651152
 H         0.229396        -1.843882         1.841970
 H        -0.604557        -0.243028         2.016520
