19
Iteration:  4230
 O        -2.949425        -0.987738         1.491209
 C        -1.731936        -1.365801         0.841732
 C        -1.856864        -2.652479         0.072114
 C        -1.743854        -1.212935        -0.661899
 O        -0.498448        -0.598494        -1.089716
 C         0.405340        -0.507583         0.207584
 C         1.433473         0.553696        -0.012306
 C         1.758496        -1.001954        -0.111675
 C        -0.456883        -0.707588         1.444211
 H        -3.326494        -1.688357         2.054070
 H        -1.071170        -3.396663        -0.149734
 H        -2.846909        -3.089199        -0.020776
 H        -2.713745        -0.770683        -1.084597
 H         1.237907         1.000610        -0.899817
 H         1.619714         1.163566         0.906087
 H         1.994452        -1.253218        -1.152136
 H         2.363691        -1.282883         0.834400
 H         0.122702        -1.397828         2.071345
 H        -0.715043         0.241422         1.957030
