19
Iteration:  2231
 O        -2.965441        -1.117802         1.543340
 C        -1.749727        -1.247224         0.863439
 C        -1.491411        -2.536601         0.010539
 C        -1.714451        -1.214967        -0.624096
 O        -0.599850        -0.448973        -0.922450
 C         0.306347        -0.608876         0.104076
 C         1.408389         0.367490         0.041355
 C         1.636600        -1.137346        -0.193700
 C        -0.531388        -0.532078         1.314142
 H        -2.918795        -1.506431         2.432024
 H        -0.487784        -2.864954        -0.261638
 H        -2.336478        -3.193616        -0.125261
 H        -2.591353        -0.906024        -1.138556
 H         1.373740         0.957321        -0.911618
 H         1.713384         0.827978         0.982380
 H         1.890924        -1.493335        -1.184210
 H         2.076801        -1.820204         0.482282
 H        -0.046408        -1.067725         2.181486
 H        -0.819408         0.463156         1.722384
