19
Iteration:  4437charge 0 multiplicity 1
 O        -2.994885        -1.046634         1.485013
 C        -1.807794        -1.319264         0.878914
 C        -1.503039        -2.564460         0.107653
 C        -1.733609        -1.267959        -0.629973
 O        -0.581119        -0.401172        -1.082894
 C         0.315207        -0.559311         0.068130
 C         1.466824         0.385744         0.095189
 C         1.694556        -1.129817        -0.178675
 C        -0.569837        -0.588722         1.405833
 H        -2.965675        -1.341458         2.401128
 H        -0.429656        -2.827269         0.192638
 H        -2.201838        -3.399771        -0.013310
 H        -2.685804        -1.175925        -1.135791
 H         1.471794         0.964753        -0.844661
 H         1.711975         0.735964         1.017635
 H         1.805100        -1.383922        -1.298375
 H         2.279630        -1.783616         0.539545
 H        -0.091920        -1.114700         2.236025
 H        -0.844480         0.432666         1.800671
