19
Iteration:  2652charge 0 multiplicity 1
 O        -3.016682        -1.309481         1.555679
 C        -1.721348        -1.302146         0.959817
 C        -1.495780        -2.448630        -0.025281
 C        -1.747031        -1.105779        -0.573135
 O        -0.592451        -0.466105        -1.098637
 C         0.307217        -0.357327         0.093610
 C         1.642567         0.293927        -0.138759
 C         1.582491        -1.213863        -0.014329
 C        -0.633414        -0.433643         1.443828
 H        -3.079568        -2.043600         2.220722
 H        -0.508589        -2.715671        -0.397406
 H        -2.181430        -3.312402        -0.063227
 H        -2.609684        -0.919214        -1.158010
 H         1.707805         0.787997        -1.066236
 H         2.034657         0.941620         0.727995
 H         1.494202        -1.742604        -0.987322
 H         1.882653        -1.993467         0.773235
 H        -0.095887        -0.914202         2.308208
 H        -0.931841         0.545254         1.681467
