19
Iteration:  2988charge 0 multiplicity 1
 O        -2.935016        -1.318349         1.579173
 C        -1.758126        -1.266952         0.861690
 C        -1.494296        -2.485173        -0.050618
 C        -1.760719        -1.085647        -0.564134
 O        -0.725838        -0.369769        -1.055230
 C         0.316549        -0.433355        -0.016752
 C         1.614143         0.276692        -0.034485
 C         1.579963        -1.275278         0.112045
 C        -0.551813        -0.429232         1.320610
 H        -2.788688        -2.035222         2.239363
 H        -0.422639        -2.753233        -0.124518
 H        -2.217616        -3.237448        -0.243306
 H        -2.798798        -0.928984        -1.076328
 H         1.956761         0.325929        -1.013070
 H         1.982839         1.160698         0.560102
 H         2.041942        -1.609761        -0.796789
 H         1.953047        -1.861905         0.999788
 H        -0.177237        -0.744003         2.346018
 H        -1.127335         0.496001         1.485093
