19
Iteration:  2924
 O        -3.059200        -1.037339         1.542377
 C        -1.839454        -1.317549         0.857140
 C        -1.610602        -2.606060         0.055787
 C        -1.747357        -1.239704        -0.652636
 O        -0.634191        -0.426179        -1.014050
 C         0.358452        -0.499907         0.165124
 C         1.544487         0.444709        -0.045595
 C         1.755265        -1.042185        -0.150368
 C        -0.491558        -0.737110         1.390290
 H        -3.058759        -1.713502         2.215814
 H        -0.648878        -2.952231         0.378431
 H        -2.407280        -3.271678        -0.079444
 H        -2.475368        -1.033852        -1.502133
 H         1.568024         1.149217        -0.861575
 H         1.938611         0.813170         0.901769
 H         1.754057        -1.484242        -1.132102
 H         2.445946        -1.586061         0.493397
 H         0.144851        -1.349598         2.141443
 H        -0.622875         0.236932         1.853790
