19
Iteration:  1160
 O        -2.758775        -0.730719         1.609974
 C        -1.757576        -1.353337         0.822178
 C        -2.126375        -2.591595         0.070250
 C        -1.739049        -1.210931        -0.669310
 O        -0.398887        -1.052340        -1.082945
 C         0.384140        -0.519236         0.173739
 C         1.152108         0.801543         0.055488
 C         1.845609        -0.568756        -0.086038
 C        -0.295232        -1.206553         1.293793
 H        -3.423132        -1.373245         1.971942
 H        -1.381225        -3.355953         0.048274
 H        -3.171355        -2.957378        -0.155543
 H        -2.366782        -0.592694        -1.238289
 H         0.884786         1.276105        -0.894656
 H         1.275681         1.440885         0.937825
 H         2.165858        -0.873617        -1.128498
 H         2.591281        -1.014045         0.689092
 H         0.130230        -2.257509         1.507211
 H        -0.545971        -0.570194         2.211742
