19
Iteration:  4393
 O        -3.012529        -1.239033         1.564160
 C        -1.737542        -1.346387         0.898177
 C        -1.483887        -2.584392         0.017486
 C        -1.715969        -1.146513        -0.697499
 O        -0.611928        -0.386883        -1.088473
 C         0.244750        -0.377926         0.151276
 C         1.700520         0.270052        -0.109038
 C         1.518375        -1.162232         0.047406
 C        -0.597713        -0.434497         1.406168
 H        -3.104468        -1.965340         2.202196
 H        -0.463832        -3.001228         0.022050
 H        -2.274825        -3.354438        -0.064843
 H        -2.694361        -0.754374        -1.220214
 H         1.693879         0.582624        -1.215805
 H         2.272004         0.796702         0.538848
 H         1.781612        -1.659349        -0.975611
 H         1.930144        -1.595570         1.021375
 H        -0.002826        -0.793431         2.253898
 H        -1.108257         0.557574         1.560200
