19
Iteration:   827charge 0 multiplicity 1
 O        -2.883783        -0.832217         1.548635
 C        -1.767018        -1.299189         0.895556
 C        -1.852916        -2.597562         0.024983
 C        -1.712980        -1.234943        -0.661520
 O        -0.430510        -0.777340        -1.094754
 C         0.332178        -0.581146         0.136735
 C         1.151989         0.668632         0.086189
 C         1.722729        -0.773330        -0.146842
 C        -0.337482        -1.074255         1.354236
 H        -2.797770        -0.998950         2.491173
 H        -0.869401        -3.147346        -0.055351
 H        -2.757286        -3.165280         0.043647
 H        -2.456447        -0.800173        -1.289311
 H         0.966248         1.256143        -0.880210
 H         1.556231         1.241798         1.046803
 H         1.961318        -1.043826        -1.208855
 H         2.398697        -1.114197         0.646685
 H         0.119818        -2.046870         1.802370
 H        -0.344152        -0.318271         2.164870
