19
Iteration:  3860
 O        -2.919782        -1.107022         1.637160
 C        -1.796841        -1.425462         0.875586
 C        -1.795920        -2.574523        -0.016217
 C        -1.715394        -1.135694        -0.634498
 O        -0.474771        -0.644194        -1.066688
 C         0.276271        -0.410808         0.043078
 C         1.628321         0.510689        -0.109454
 C         1.607001        -0.952333         0.040959
 C        -0.503819        -0.655497         1.366915
 H        -3.208813        -1.966009         1.902866
 H        -0.889141        -3.206079        -0.204720
 H        -2.703893        -3.199700        -0.115450
 H        -2.705741        -0.562051        -1.053426
 H         1.480325         0.978602        -1.012144
 H         1.913820         1.118553         0.769682
 H         2.056314        -1.535697        -0.788383
 H         2.054686        -1.540375         0.943379
 H         0.049415        -1.189275         2.183202
 H        -0.939459         0.256508         1.751439
