19
Iteration:  3895
 O        -2.983063        -1.225261         1.583682
 C        -1.849995        -1.186686         0.859644
 C        -1.488409        -2.540217        -0.001961
 C        -1.777464        -1.166197        -0.638744
 O        -0.562619        -0.466251        -0.979818
 C         0.310584        -0.598348         0.103190
 C         1.540729         0.355512        -0.050719
 C         1.679797        -1.119416        -0.096833
 C        -0.574674        -0.522610         1.350684
 H        -3.077600        -1.708190         2.384230
 H        -0.452329        -2.879093        -0.129850
 H        -2.305962        -3.240391        -0.055218
 H        -2.658768        -0.815336        -1.258857
 H         1.356310         0.903207        -1.027193
 H         1.785314         1.070651         0.684136
 H         1.988052        -1.645921        -0.976119
 H         2.121229        -1.476840         0.884650
 H        -0.131565        -0.919820         2.289088
 H        -0.797795         0.519253         1.541372
