19
Iteration:  3986charge 0 multiplicity 1
 O        -3.121152        -1.220344         1.601635
 C        -1.867161        -1.292768         0.933735
 C        -1.412699        -2.494004         0.057687
 C        -1.745870        -1.187794        -0.695232
 O        -0.596551        -0.407795        -0.959686
 C         0.324760        -0.365094         0.117085
 C         1.617627         0.340683        -0.123395
 C         1.620953        -1.268817        -0.088199
 C        -0.565242        -0.494658         1.345120
 H        -3.067430        -2.127412         1.934118
 H        -0.300543        -2.676266         0.081734
 H        -2.101156        -3.307710        -0.226011
 H        -2.569662        -1.231170        -1.506272
 H         1.884477         0.762435        -1.057998
 H         2.099778         0.991285         0.745744
 H         1.709024        -1.822754        -1.001194
 H         2.245165        -1.738814         0.688630
 H        -0.048506        -0.794892         2.253001
 H        -0.864278         0.562053         1.563291
