19
Iteration:  4123charge 0 multiplicity 1
 O        -3.007347        -0.823558         1.491299
 C        -1.837282        -1.326460         0.864462
 C        -1.766895        -2.658022        -0.023495
 C        -1.718934        -1.223540        -0.578836
 O        -0.500215        -0.741704        -0.931615
 C         0.380908        -0.506228         0.140066
 C         1.411869         0.584101        -0.023822
 C         1.819158        -0.915203        -0.242643
 C        -0.504202        -0.898503         1.478061
 H        -3.510277        -1.607054         1.829986
 H        -0.720367        -2.997268        -0.102958
 H        -2.619339        -3.273695        -0.313196
 H        -2.631621        -0.734742        -0.991593
 H         1.299007         1.333127        -0.697962
 H         1.576294         1.038474         0.997550
 H         2.251544        -1.164045        -1.201560
 H         2.602071        -1.412448         0.408646
 H         0.233473        -1.461226         2.088471
 H        -0.592368         0.059178         1.965178
