19
Iteration:   769
 O        -2.820924        -1.021718         1.657008
 C        -1.756668        -1.396785         0.880416
 C        -1.986183        -2.557309        -0.006259
 C        -1.739050        -1.134788        -0.587160
 O        -0.476719        -0.887467        -1.130453
 C         0.376958        -0.475562         0.057313
 C         1.321662         0.664279        -0.055276
 C         1.822393        -0.767273        -0.019407
 C        -0.443339        -0.846118         1.343046
 H        -3.326916        -1.820140         1.943962
 H        -1.356929        -3.384110        -0.077833
 H        -3.057235        -2.862410        -0.059844
 H        -2.408137        -0.545892        -1.273132
 H         1.420018         1.287765        -0.935311
 H         1.540705         1.253409         0.927879
 H         2.273309        -1.246034        -0.894716
 H         2.341235        -0.986158         0.920609
 H         0.114375        -1.584377         1.980992
 H        -0.733780        -0.000005         1.989185
