19
Iteration:  4724charge 0 multiplicity 1
 O        -2.947911        -0.879190         1.721666
 C        -1.833710        -1.237368         0.839426
 C        -2.056232        -2.543494        -0.020471
 C        -1.712070        -1.151199        -0.693203
 O        -0.377282        -0.941308        -1.076846
 C         0.458097        -0.640590         0.171069
 C         1.222362         0.647623        -0.055540
 C         1.954073        -0.694422        -0.079508
 C        -0.381757        -0.986028         1.376417
 H        -3.515656        -1.663852         1.515242
 H        -1.186504        -3.151614        -0.157405
 H        -3.064264        -2.927581        -0.156692
 H        -2.488051        -0.619746        -1.305357
 H         0.973365         1.033853        -1.061475
 H         1.382408         1.296434         0.906008
 H         2.338380        -1.186699        -0.892913
 H         2.517925        -0.949820         0.798892
 H        -0.042885        -1.899831         1.857494
 H        -0.326022        -0.131498         2.028262
