19
Iteration:   489
 O        -3.010548        -1.158111         1.598194
 C        -1.742847        -1.350821         0.885317
 C        -1.398989        -2.605538         0.036330
 C        -1.733796        -1.225944        -0.633453
 O        -0.664867        -0.453627        -1.004013
 C         0.250254        -0.467821         0.030890
 C         1.459283         0.370051        -0.156018
 C         1.651806        -1.107652        -0.060719
 C        -0.543799        -0.526565         1.414285
 H        -2.832686        -0.592012         2.393465
 H        -0.371074        -2.914792         0.042270
 H        -2.096035        -3.337221        -0.022790
 H        -2.703465        -1.146176        -1.163827
 H         1.666622         0.783742        -1.235876
 H         1.714685         1.065581         0.708044
 H         1.859763        -1.471894        -1.037144
 H         2.201742        -1.620250         0.797793
 H         0.102052        -1.065720         2.204967
 H        -0.863056         0.464485         1.905831
