19
Iteration:  4216charge 0 multiplicity 1
 O        -2.915433        -0.965586         1.558599
 C        -1.756163        -1.334720         0.874215
 C        -1.796439        -2.551078        -0.082559
 C        -1.727796        -1.203341        -0.617077
 O        -0.526595        -0.716643        -1.003135
 C         0.324918        -0.564884         0.054376
 C         1.365987         0.501337         0.013567
 C         1.814522        -0.885796        -0.028511
 C        -0.478035        -0.756034         1.357457
 H        -3.008446        -1.671163         2.209639
 H        -1.095479        -3.344057        -0.139167
 H        -2.828640        -2.813032        -0.001508
 H        -2.499243        -0.839152        -1.174592
 H         1.476956         1.149395        -0.864275
 H         1.661848         1.088710         0.868860
 H         2.083915        -1.358994        -0.955278
 H         2.356800        -1.366798         0.708740
 H        -0.054798        -1.237165         2.204120
 H        -0.796358         0.249685         1.697384
