19
Iteration:   877charge 0 multiplicity 1
 O        -2.884742        -0.839968         1.568812
 C        -1.790608        -1.387120         0.866251
 C        -2.009420        -2.662202         0.089667
 C        -1.779868        -1.184957        -0.639058
 O        -0.475720        -0.844658        -1.087043
 C         0.442674        -0.618783         0.110376
 C         1.241800         0.725445         0.099467
 C         1.956980        -0.650038        -0.236317
 C        -0.331240        -1.007626         1.375102
 H        -3.335179        -1.696049         1.803363
 H        -1.322382        -3.505825         0.014222
 H        -3.087948        -2.869012         0.150766
 H        -2.588066        -0.678122        -1.278817
 H         1.101439         1.379508        -0.697170
 H         1.359424         0.954269         1.148734
 H         2.106991        -0.803774        -1.284069
 H         2.508381        -1.050618         0.700584
 H        -0.002095        -1.779414         2.022714
 H        -0.540008        -0.165507         2.022992
