19
Iteration:  1333charge 0 multiplicity 1
 O        -2.738711        -0.648198         1.700865
 C        -1.817159        -1.404764         0.886184
 C        -2.241452        -2.558047        -0.033726
 C        -1.736348        -1.247548        -0.688536
 O        -0.292757        -1.119430        -1.116523
 C         0.430223        -0.609855         0.076762
 C         1.015254         0.799880         0.050598
 C         1.948911        -0.443423        -0.071607
 C        -0.336459        -1.264820         1.307130
 H        -3.397958        -1.281504         2.016219
 H        -1.562264        -3.485421        -0.079303
 H        -3.321392        -2.690591        -0.211108
 H        -2.361486        -0.585020        -1.165666
 H         0.774716         1.495935        -0.760957
 H         1.015293         1.315684         1.008487
 H         2.635305        -0.798919        -0.884112
 H         2.635465        -0.715053         0.795704
 H         0.212268        -2.122373         1.635025
 H        -0.082692        -0.705500         2.273403
