19
Iteration:  1369
 O        -2.800618        -0.682023         1.520768
 C        -1.768723        -1.370572         0.844392
 C        -2.059943        -2.539723         0.023024
 C        -1.680497        -1.148557        -0.637380
 O        -0.332484        -1.016475        -1.093387
 C         0.390772        -0.639057         0.159346
 C         0.963820         0.757305         0.059188
 C         1.865559        -0.608919        -0.120644
 C        -0.308953        -1.276490         1.394631
 H        -2.920507        -1.087766         2.406973
 H        -1.301556        -3.209042        -0.166891
 H        -3.038199        -2.967472         0.136979
 H        -2.514223        -0.455521        -1.051022
 H         0.600757         1.423506        -0.806317
 H         1.201453         1.241699         1.080911
 H         2.068593        -0.885660        -1.198564
 H         2.441265        -0.789003         0.755889
 H         0.126329        -2.218217         1.427864
 H        -0.160473        -0.561528         2.200770
