19
Iteration:  2223
 O        -2.975016        -1.166118         1.513388
 C        -1.758123        -1.238617         0.881397
 C        -1.507399        -2.544994         0.031377
 C        -1.711391        -1.198195        -0.592723
 O        -0.612326        -0.423343        -0.972059
 C         0.296014        -0.475675         0.077040
 C         1.428448         0.381354         0.037088
 C         1.573393        -1.233440        -0.173287
 C        -0.466890        -0.527267         1.376020
 H        -2.833767        -1.628790         2.342961
 H        -0.524064        -2.967098        -0.128824
 H        -2.305883        -3.192936        -0.215831
 H        -2.602169        -1.094672        -1.399412
 H         1.578612         0.757741        -0.879357
 H         1.573696         0.942657         0.978828
 H         1.824967        -1.503312        -1.160708
 H         2.109426        -1.805411         0.562664
 H         0.158410        -1.096583         2.200087
 H        -0.651772         0.477577         1.698042
