19
Iteration:  2490charge 0 multiplicity 1
 O        -2.908840        -0.984311         1.651003
 C        -1.758929        -1.300527         0.830194
 C        -1.792041        -2.601328        -0.035861
 C        -1.719445        -1.104375        -0.639650
 O        -0.457575        -0.657874        -1.093294
 C         0.313177        -0.591714         0.112941
 C         1.291970         0.546734         0.039316
 C         1.732927        -0.957897        -0.095039
 C        -0.456785        -0.809062         1.351238
 H        -2.958546        -1.798205         2.149003
 H        -0.938969        -3.292682         0.016633
 H        -2.793063        -3.057748        -0.095810
 H        -2.582541        -0.751063        -1.032076
 H         1.253864         1.008270        -1.019207
 H         1.663465         1.146057         0.846103
 H         2.287678        -1.311601        -1.008077
 H         2.294352        -1.244822         0.794920
 H         0.064380        -1.423060         2.111311
 H        -0.572287         0.228496         1.854722
