19
Iteration:  2812charge 0 multiplicity 1
 O        -2.880716        -1.000594         1.544393
 C        -1.668302        -1.379583         0.900177
 C        -1.817120        -2.468576         0.022234
 C        -1.825548        -1.058122        -0.669308
 O        -0.511444        -0.749779        -1.101721
 C         0.306452        -0.547249         0.048226
 C         1.377023         0.554595        -0.018032
 C         1.754480        -0.912252        -0.018542
 C        -0.461063        -0.879073         1.433003
 H        -3.268161        -1.786718         2.026680
 H        -0.883886        -3.112845        -0.135155
 H        -2.771260        -3.144590         0.139524
 H        -2.635946        -0.656462        -1.115634
 H         1.535133         1.024792        -0.955054
 H         1.617448         1.197786         0.927216
 H         2.000877        -1.302033        -1.025895
 H         2.357708        -1.196476         0.969022
 H         0.238588        -1.464798         2.113042
 H        -0.719436         0.138119         1.895686
