19
Iteration:  2955charge 0 multiplicity 1
 O        -2.951903        -1.173355         1.595232
 C        -1.771303        -1.353505         0.863308
 C        -1.580346        -2.542339        -0.029711
 C        -1.676530        -1.154720        -0.641418
 O        -0.559158        -0.445039        -1.087720
 C         0.262271        -0.435201         0.134340
 C         1.525275         0.397302        -0.010289
 C         1.542393        -1.188987        -0.057297
 C        -0.516093        -0.529192         1.388270
 H        -2.721826        -1.687403         2.421079
 H        -0.615257        -3.069678         0.137988
 H        -2.407232        -3.250881        -0.223165
 H        -2.512858        -0.912800        -1.348058
 H         1.668934         0.900152        -0.980381
 H         1.925039         0.880963         0.879130
 H         1.535802        -1.562667        -1.113106
 H         2.114633        -1.757876         0.719947
 H        -0.009535        -0.974615         2.285581
 H        -1.046188         0.423449         1.633574
