19
Iteration:  4243charge 0 multiplicity 1
 O        -3.005856        -0.979958         1.448278
 C        -1.840810        -1.373283         0.853286
 C        -1.810598        -2.664389         0.089311
 C        -1.679777        -1.172938        -0.577340
 O        -0.493001        -0.567037        -1.014856
 C         0.340585        -0.433244         0.124453
 C         1.457221         0.550566        -0.056145
 C         1.768558        -0.967846        -0.120104
 C        -0.442618        -0.794600         1.436125
 H        -3.286777        -1.787621         1.906456
 H        -0.809608        -3.119386         0.290793
 H        -2.721119        -3.327503         0.045064
 H        -2.588247        -0.922456        -1.318270
 H         1.523270         1.182368        -0.991523
 H         2.027950         1.042997         0.716745
 H         1.794157        -1.548235        -1.079832
 H         2.351156        -1.705097         0.579230
 H         0.081371        -1.469409         2.195357
 H        -0.716489         0.094607         2.024636
