19
Iteration:  2720charge 0 multiplicity 1
 O        -2.948044        -0.964188         1.555193
 C        -1.787677        -1.287290         0.906576
 C        -1.558198        -2.626151        -0.073027
 C        -1.763755        -1.215276        -0.499298
 O        -0.586217        -0.561418        -1.089658
 C         0.270847        -0.478839         0.048294
 C         1.485485         0.489555         0.075861
 C         1.637189        -1.086948        -0.105949
 C        -0.448225        -0.726327         1.369461
 H        -3.200176        -1.638803         2.182432
 H        -0.597806        -3.096054        -0.150065
 H        -2.299758        -3.323260        -0.349673
 H        -2.772108        -0.859612        -1.163688
 H         1.620027         1.229131        -0.795345
 H         1.709412         1.022495         0.975347
 H         1.809532        -1.582778        -1.049935
 H         1.940432        -1.642847         0.722270
 H         0.224301        -1.330695         1.926077
 H        -0.729864         0.223377         1.891153
