19
Iteration:  4857
 O        -2.820324        -0.806314         1.605043
 C        -1.711198        -1.390263         0.864698
 C        -2.069974        -2.495017        -0.043993
 C        -1.731921        -1.192146        -0.661239
 O        -0.379798        -0.994202        -1.067356
 C         0.347464        -0.630512         0.121887
 C         1.140718         0.643103         0.053007
 C         1.928721        -0.727989        -0.091771
 C        -0.357729        -0.894670         1.433400
 H        -3.478804        -1.539439         1.722929
 H        -1.580134        -3.442229        -0.348473
 H        -3.166806        -2.622099        -0.058820
 H        -2.458403        -0.690564        -1.309566
 H         0.961380         1.271938        -0.918245
 H         1.204636         1.183088         0.987804
 H         2.143891        -0.959720        -1.182959
 H         2.476174        -1.102223         0.787601
 H         0.178337        -1.675115         1.936796
 H        -0.429474         0.036115         1.973532
