19
Iteration:  2586charge 0 multiplicity 1
 O        -2.995761        -1.215927         1.612815
 C        -1.828046        -1.317374         0.859132
 C        -1.485469        -2.516420         0.030061
 C        -1.746559        -1.215922        -0.662000
 O        -0.589686        -0.416800        -1.011431
 C         0.311033        -0.361610         0.127712
 C         1.650259         0.322259        -0.001838
 C         1.511133        -1.137059        -0.153784
 C        -0.568990        -0.533418         1.298703
 H        -2.798080        -1.556571         2.488970
 H        -0.372813        -2.693437        -0.003660
 H        -2.174490        -3.356547        -0.044159
 H        -2.480221        -1.079971        -1.304904
 H         1.902349         1.062245        -0.836671
 H         1.989163         0.569776         0.966901
 H         1.465815        -1.734125        -1.134309
 H         1.959531        -1.754171         0.662453
 H        -0.074674        -1.094951         2.138202
 H        -0.991787         0.292687         1.767780
