19
Iteration:  1448charge 0 multiplicity 1
 O        -2.867985        -0.818045         1.691687
 C        -1.827875        -1.306365         0.856709
 C        -2.041533        -2.587329        -0.007963
 C        -1.751713        -1.170366        -0.657035
 O        -0.339209        -0.917457        -1.037620
 C         0.406470        -0.508108         0.040971
 C         1.151864         0.684604         0.019351
 C         1.884308        -0.716322        -0.033936
 C        -0.335716        -1.080561         1.284600
 H        -3.409609        -1.614470         1.781849
 H        -1.287758        -3.430831        -0.047862
 H        -3.044400        -3.003795        -0.044149
 H        -2.674198        -0.686201        -1.142745
 H         1.239856         1.121886        -0.952458
 H         1.141607         1.481339         0.734963
 H         2.269233        -1.002582        -0.995431
 H         2.479552        -1.124785         0.785812
 H         0.221914        -1.874776         1.546787
 H        -0.254872        -0.474329         2.141449
