19
Iteration:  4308charge 0 multiplicity 1
 O        -2.980155        -1.128080         1.528646
 C        -1.710293        -1.295223         0.932964
 C        -1.562364        -2.627411        -0.038775
 C        -1.719035        -1.280183        -0.638400
 O        -0.623180        -0.445822        -1.070919
 C         0.352966        -0.404957         0.093677
 C         1.531533         0.400836         0.101163
 C         1.613980        -1.191855        -0.089248
 C        -0.574319        -0.471469         1.351639
 H        -2.986366        -1.411836         2.485182
 H        -0.644834        -3.212733        -0.194768
 H        -2.512696        -3.225031        -0.060699
 H        -2.588991        -1.086901        -1.349928
 H         1.690840         0.987332        -0.848677
 H         1.964952         0.877019         0.887720
 H         1.769097        -1.634020        -1.118434
 H         1.892110        -1.858503         0.770526
 H         0.010203        -0.907771         2.211024
 H        -0.947380         0.512958         1.636627
