19
Iteration:  1095
 O        -2.852629        -0.873331         1.690380
 C        -1.766754        -1.276151         0.769126
 C        -1.961245        -2.504037        -0.041334
 C        -1.696388        -1.131978        -0.725646
 O        -0.429906        -0.977930        -1.000704
 C         0.384271        -0.669848         0.110875
 C         1.053712         0.584667        -0.007793
 C         1.885661        -0.631864        -0.101713
 C        -0.356833        -1.020843         1.396090
 H        -2.607350        -1.351599         2.492387
 H        -1.279745        -3.206582        -0.444715
 H        -3.087942        -2.569165        -0.025386
 H        -2.373879        -0.742478        -1.390164
 H         0.695544         1.192971        -0.866072
 H         1.087395         1.150864         0.926399
 H         2.298445        -0.989554        -1.165080
 H         2.627388        -0.659597         0.748072
 H         0.150053        -1.839685         2.027513
 H        -0.307358        -0.166080         2.168461
