19
Iteration:  3817
 O        -2.906285        -0.958479         1.638460
 C        -1.778206        -1.259616         0.834166
 C        -1.772849        -2.584033         0.041178
 C        -1.719335        -1.151498        -0.671744
 O        -0.480484        -0.622151        -1.063864
 C         0.363466        -0.665269         0.084157
 C         1.250868         0.491224         0.042708
 C         1.826239        -0.883682        -0.093741
 C        -0.494588        -0.838784         1.323860
 H        -3.336234        -1.728776         1.978843
 H        -0.807910        -3.117996         0.007275
 H        -2.738961        -3.108833        -0.099822
 H        -2.605382        -0.843091        -1.392965
 H         1.224729         0.932480        -0.899460
 H         1.505610         1.139974         0.897642
 H         2.486202        -1.292958        -0.876493
 H         2.251868        -1.208940         0.898442
 H        -0.013460        -1.488946         2.091949
 H        -0.696249         0.119341         1.774491
