19
Iteration:   984
 O        -2.864313        -0.824801         1.599680
 C        -1.787504        -1.331807         0.813201
 C        -1.953185        -2.559304        -0.027751
 C        -1.813450        -1.177808        -0.631241
 O        -0.429067        -1.011101        -0.982314
 C         0.420812        -0.550095         0.100818
 C         1.241720         0.718718         0.126084
 C         1.834956        -0.645101        -0.213016
 C        -0.371419        -1.031484         1.378708
 H        -3.150888        -1.677950         2.025619
 H        -1.093781        -3.308431        -0.233000
 H        -2.877119        -3.131254         0.005473
 H        -2.522913        -0.732275        -1.410056
 H         1.134638         1.352322        -0.698731
 H         1.357164         1.220748         1.055136
 H         1.990914        -0.753624        -1.314996
 H         2.582897        -1.256524         0.408009
 H         0.109635        -1.867032         1.942540
 H        -0.507425        -0.142598         2.085222
