19
Iteration:  2198charge 0 multiplicity 1
 O        -3.009132        -1.217956         1.571411
 C        -1.754599        -1.344615         0.906257
 C        -1.497125        -2.553184         0.104943
 C        -1.711539        -1.193315        -0.608810
 O        -0.651481        -0.339975        -1.070725
 C         0.274367        -0.297507         0.064858
 C         1.747816         0.303437        -0.066225
 C         1.521152        -1.129424        -0.074444
 C        -0.607293        -0.591563         1.330046
 H        -3.067559        -2.003186         2.112672
 H        -0.496634        -2.988751        -0.086056
 H        -2.285722        -3.315920        -0.097215
 H        -2.593688        -0.923798        -1.010185
 H         1.896980         0.713641        -1.169236
 H         2.201803         0.747965         0.785325
 H         1.616016        -1.828816        -0.950771
 H         1.716196        -1.452165         0.951357
 H         0.089839        -1.230363         1.956455
 H        -1.001442         0.304663         1.916325
