19
Iteration:  2481charge 0 multiplicity 1
 O        -2.891151        -0.988222         1.604228
 C        -1.793098        -1.332725         0.884164
 C        -1.817109        -2.520900        -0.041004
 C        -1.791065        -1.157596        -0.608670
 O        -0.493046        -0.690582        -1.094311
 C         0.341421        -0.614396         0.042125
 C         1.316788         0.494417         0.047029
 C         1.862967        -0.873011        -0.075544
 C        -0.434022        -0.791881         1.411898
 H        -3.106479        -1.664860         2.244405
 H        -0.933750        -3.156998        -0.100214
 H        -2.675304        -3.095820        -0.192702
 H        -2.531304        -0.639463        -1.236870
 H         1.222766         1.105971        -0.916283
 H         1.405714         1.094091         0.889444
 H         2.095139        -1.208024        -1.076194
 H         2.316165        -1.430167         0.653103
 H         0.041153        -1.409642         2.138157
 H        -0.727290         0.226737         1.819113
