19
Iteration:  1499
 O        -2.837551        -0.890788         1.619711
 C        -1.764084        -1.353377         0.917904
 C        -2.019910        -2.535465        -0.034380
 C        -1.657855        -1.131483        -0.668952
 O        -0.415635        -0.933036        -0.989641
 C         0.356665        -0.587303         0.060226
 C         1.240520         0.639064        -0.000918
 C         1.796099        -0.726432        -0.109632
 C        -0.444195        -0.923666         1.348973
 H        -3.147997        -1.702866         2.015247
 H        -1.257885        -3.239414        -0.098297
 H        -2.940067        -2.994021        -0.227820
 H        -2.385270        -0.502314        -1.277287
 H         1.153474         1.220619        -0.939253
 H         1.328504         1.334857         0.941136
 H         2.184190        -0.950151        -1.049039
 H         2.405809        -1.136236         0.718124
 H         0.275338        -1.788058         1.762096
 H        -0.460154        -0.232922         2.218821
