19
Iteration:   954
 O        -2.945829        -0.919280         1.613097
 C        -1.738477        -1.432463         0.902925
 C        -2.115606        -2.567927        -0.038197
 C        -1.712339        -1.168568        -0.571337
 O        -0.377741        -0.871680        -1.092706
 C         0.413000        -0.547792         0.004730
 C         1.174140         0.695521        -0.018549
 C         1.899471        -0.679628        -0.028128
 C        -0.302430        -1.011629         1.355789
 H        -2.644979        -1.439681         2.377764
 H        -1.620782        -3.558418        -0.320083
 H        -3.153606        -2.746423         0.036646
 H        -2.447438        -0.577522        -1.115234
 H         1.102827         1.347070        -0.961880
 H         1.106926         1.429099         0.860304
 H         2.380093        -1.033082        -1.024608
 H         2.425295        -1.089260         0.916139
 H         0.326460        -1.612426         1.990442
 H        -0.518591        -0.113464         1.924956
