19
Iteration:  1121charge 0 multiplicity 1
 O        -2.877976        -0.816566         1.617126
 C        -1.802612        -1.388085         0.871962
 C        -2.081711        -2.509489        -0.034202
 C        -1.684713        -1.111243        -0.560138
 O        -0.359037        -1.037848        -1.063227
 C         0.440020        -0.591893         0.103762
 C         1.097897         0.713390        -0.002499
 C         1.920154        -0.615195        -0.148011
 C        -0.344080        -1.132609         1.385820
 H        -3.325166        -1.575684         1.993657
 H        -1.189502        -3.152501        -0.146712
 H        -3.061776        -2.842716        -0.159831
 H        -2.542959        -0.479491        -0.978796
 H         0.840854         1.129882        -0.991453
 H         1.158583         1.520351         0.813159
 H         2.101925        -0.848134        -1.121865
 H         2.627384        -0.932253         0.589657
 H         0.221045        -1.805837         1.977962
 H        -0.380576        -0.322353         2.064045
