19
Iteration:   486
 O        -2.998588        -1.129018         1.601958
 C        -1.776199        -1.341313         0.878442
 C        -1.387611        -2.588213         0.041732
 C        -1.730276        -1.232919        -0.623355
 O        -0.657538        -0.450912        -0.988695
 C         0.236654        -0.475433         0.036428
 C         1.460963         0.395535        -0.205059
 C         1.662378        -1.085325        -0.045706
 C        -0.553423        -0.596740         1.427457
 H        -2.840249        -0.644302         2.430886
 H        -0.394843        -2.957580        -0.024214
 H        -2.126542        -3.402212        -0.029321
 H        -2.576056        -1.179175        -1.361548
 H         1.644522         0.771574        -1.190234
 H         1.742122         1.019048         0.680788
 H         1.844165        -1.532534        -0.962583
 H         2.140182        -1.561169         0.797718
 H         0.146769        -1.059099         2.212236
 H        -0.857068         0.326847         1.815911
