19
Iteration:  3684
 O        -2.841989        -0.885901         1.658809
 C        -1.779108        -1.263799         0.856849
 C        -2.110356        -2.546763        -0.091740
 C        -1.720497        -1.208894        -0.638983
 O        -0.407093        -0.939344        -1.022579
 C         0.366316        -0.619469         0.078102
 C         1.217677         0.671317        -0.005644
 C         1.913227        -0.657389         0.021070
 C        -0.332256        -1.008965         1.310916
 H        -3.283266        -1.677435         1.901936
 H        -1.535238        -3.489141        -0.200053
 H        -3.146885        -2.730832        -0.429627
 H        -2.408028        -0.787098        -1.225902
 H         1.152254         1.317352        -0.901027
 H         1.130738         1.287181         0.894461
 H         2.204870        -0.771215        -1.009648
 H         2.597053        -1.025451         0.870059
 H         0.119861        -1.817480         1.886313
 H        -0.309718        -0.091469         1.972699
