19
Iteration:   879
 O        -2.881355        -0.850491         1.575738
 C        -1.781495        -1.353907         0.858792
 C        -2.016327        -2.652695         0.078879
 C        -1.759507        -1.193424        -0.626051
 O        -0.480734        -0.846891        -1.082201
 C         0.428593        -0.600205         0.110124
 C         1.234703         0.702792         0.087950
 C         1.957289        -0.654652        -0.222634
 C        -0.329815        -1.011510         1.367817
 H        -3.329803        -1.680757         1.805466
 H        -1.325931        -3.520399         0.001004
 H        -3.041438        -2.867716         0.102841
 H        -2.542600        -0.732232        -1.250133
 H         1.092825         1.381845        -0.795441
 H         1.307219         0.982736         1.221389
 H         2.098917        -0.771184        -1.292502
 H         2.470178        -1.049298         0.687675
 H         0.002573        -1.824336         2.041371
 H        -0.542772        -0.189088         2.021315
