19
Iteration:  2890charge 0 multiplicity 1
 O        -2.984689        -0.972718         1.468289
 C        -1.763029        -1.343165         0.921833
 C        -1.696375        -2.564813        -0.032396
 C        -1.703972        -1.151386        -0.615687
 O        -0.533357        -0.617117        -0.940967
 C         0.319528        -0.524894         0.078648
 C         1.382952         0.478249        -0.004854
 C         1.710386        -0.948767        -0.134060
 C        -0.439080        -0.802775         1.414078
 H        -3.313085        -1.493048         2.226847
 H        -0.827786        -3.297117        -0.034741
 H        -2.541588        -3.231275         0.230070
 H        -2.578179        -0.944574        -1.309877
 H         1.416309         1.295129        -0.853335
 H         1.646257         0.896024         0.894450
 H         1.860912        -1.240965        -1.244980
 H         2.115946        -1.642308         0.629648
 H         0.404401        -1.398152         1.920844
 H        -0.435637         0.198232         1.873275
