19
Iteration:  2109
 O        -2.978562        -1.178290         1.603348
 C        -1.771359        -1.392671         0.852452
 C        -1.602336        -2.646602         0.052814
 C        -1.753103        -1.145891        -0.587460
 O        -0.650561        -0.377467        -1.073467
 C         0.321491        -0.371307         0.014917
 C         1.616177         0.434412         0.029885
 C         1.634973        -1.140025        -0.094926
 C        -0.533940        -0.594390         1.278750
 H        -2.868012        -1.641583         2.435111
 H        -0.652000        -3.220733         0.166754
 H        -2.569031        -3.200491        -0.144071
 H        -2.610643        -1.114302        -1.295383
 H         1.930365         1.006142        -0.881706
 H         1.919915         0.866011         1.090587
 H         2.054925        -1.839119        -0.824492
 H         1.941408        -1.603592         0.945187
 H         0.039644        -1.098979         2.048013
 H        -0.885246         0.434840         1.718299
