19
Iteration:  2998
 O        -2.966737        -1.361270         1.628005
 C        -1.730474        -1.329806         0.876937
 C        -1.463824        -2.473036        -0.027005
 C        -1.804618        -1.047764        -0.632730
 O        -0.644446        -0.306689        -1.098082
 C         0.307939        -0.439989         0.056443
 C         1.619591         0.240511        -0.097618
 C         1.573800        -1.241678         0.116941
 C        -0.576152        -0.415697         1.311271
 H        -3.024464        -2.100742         2.299094
 H        -0.422040        -2.876474         0.132286
 H        -2.275965        -3.190255        -0.105278
 H        -2.765991        -0.985164        -1.267162
 H         1.930732         0.464540        -1.107457
 H         1.766996         1.061094         0.655234
 H         1.750629        -1.876857        -0.748597
 H         1.631297        -1.827976         1.098221
 H         0.103999        -0.721443         2.129972
 H        -0.849734         0.646800         1.482511
