19
Iteration:  4572charge 0 multiplicity 1
 O        -2.866821        -0.877216         1.547762
 C        -1.804444        -1.311207         0.834584
 C        -1.955662        -2.581740         0.064702
 C        -1.683803        -1.222043        -0.663019
 O        -0.440378        -0.762980        -1.048039
 C         0.356455        -0.542946         0.069867
 C         1.267496         0.606996         0.043180
 C         1.808537        -0.837348        -0.044846
 C        -0.392707        -0.909034         1.347475
 H        -3.211218        -1.618650         2.115642
 H        -1.353775        -3.486303         0.123284
 H        -2.989608        -2.920045         0.046839
 H        -2.529621        -0.751952        -1.337208
 H         1.332342         1.032086        -1.046102
 H         1.333486         1.277001         0.931584
 H         2.129930        -0.964280        -1.074890
 H         2.409643        -1.348615         0.620126
 H         0.120533        -1.759346         1.938444
 H        -0.284543        -0.236235         2.162022
