19
Iteration:  3937
 O        -2.986290        -1.164132         1.454563
 C        -1.713556        -1.347971         0.881788
 C        -1.426927        -2.613202         0.059310
 C        -1.610620        -1.310296        -0.644594
 O        -0.670317        -0.318705        -0.998672
 C         0.254596        -0.338877         0.094633
 C         1.630617         0.305120        -0.018475
 C         1.364562        -1.161380        -0.120404
 C        -0.533792        -0.465386         1.398839
 H        -2.751928        -1.455697         2.380487
 H        -0.445555        -3.066259         0.298136
 H        -2.238479        -3.322687         0.061546
 H        -2.631538        -1.258886        -1.190769
 H         1.976714         0.893020        -0.901447
 H         1.984290         0.678150         0.888359
 H         1.477739        -1.698719        -1.050485
 H         1.582486        -1.922666         0.701924
 H        -0.016435        -1.034613         2.223916
 H        -0.830984         0.518948         1.773952
