19
Iteration:  1529
 O        -3.017336        -0.878979         1.614739
 C        -1.825833        -1.298863         0.896293
 C        -2.029610        -2.632849        -0.020143
 C        -1.774566        -1.239295        -0.664957
 O        -0.462195        -0.908909        -1.118970
 C         0.402721        -0.543356         0.137206
 C         1.378215         0.707502         0.068419
 C         1.950127        -0.689071        -0.163126
 C        -0.348751        -0.935074         1.381256
 H        -2.872483        -1.379972         2.458053
 H        -1.152723        -3.217024        -0.205616
 H        -3.008785        -3.211087         0.055166
 H        -2.459800        -0.686836        -1.194972
 H         1.087459         1.179581        -0.843282
 H         1.584852         1.013740         1.090702
 H         2.139629        -1.010116        -1.160369
 H         2.609884        -1.096106         0.657547
 H         0.189404        -1.813687         1.668581
 H        -0.288817        -0.192322         2.219235
