19
Iteration:   357
 O        -2.806060        -0.852481         1.656819
 C        -1.768183        -1.418273         0.887490
 C        -1.823822        -2.684522         0.057522
 C        -1.715832        -1.288655        -0.644825
 O        -0.563139        -0.676979        -1.026068
 C         0.312418        -0.486020         0.090069
 C         1.359328         0.655634        -0.189071
 C         1.750578        -0.748795         0.005923
 C        -0.399763        -0.972819         1.345150
 H        -3.638656        -1.346851         1.419043
 H        -1.220089        -3.459041         0.218637
 H        -2.784925        -3.075353        -0.119584
 H        -2.678509        -1.010193        -1.153887
 H         1.289473         0.886564        -1.252280
 H         1.688091         1.545290         0.447955
 H         2.247759        -1.288830        -0.859527
 H         2.100175        -0.993624         0.949740
 H         0.095911        -1.863783         1.818701
 H        -0.574170        -0.186986         2.118967
