19
Iteration:  2756charge 0 multiplicity 1
 O        -2.992344        -0.995947         1.526677
 C        -1.823266        -1.296936         0.831148
 C        -1.779406        -2.683354         0.111194
 C        -1.754642        -1.151049        -0.626885
 O        -0.508889        -0.544535        -0.952593
 C         0.399778        -0.563756         0.096313
 C         1.439888         0.539058         0.043874
 C         1.822536        -0.945516        -0.211344
 C        -0.488657        -0.826373         1.286476
 H        -2.916559        -1.424017         2.381277
 H        -0.788640        -3.191269         0.222267
 H        -2.770032        -3.131673        -0.120514
 H        -2.653921        -1.024750        -1.212108
 H         1.236296         1.110261        -0.870490
 H         1.763922         1.057546         0.962481
 H         1.991704        -1.417170        -1.207883
 H         2.353452        -1.406915         0.654665
 H        -0.138021        -1.532238         2.072587
 H        -0.666887         0.157383         1.860941
