19
Iteration:   500charge 0 multiplicity 1
 O        -2.990087        -1.265601         1.569419
 C        -1.711620        -1.326300         0.917838
 C        -1.450027        -2.575763         0.059157
 C        -1.761014        -1.274666        -0.553162
 O        -0.666166        -0.449201        -1.088447
 C         0.280819        -0.412140         0.086206
 C         1.491229         0.370947        -0.042851
 C         1.613628        -1.171025        -0.120209
 C        -0.518595        -0.422200         1.325760
 H        -2.872985        -0.544771         2.200371
 H        -0.431445        -2.935826         0.072795
 H        -2.144095        -3.324248         0.028915
 H        -2.731897        -0.928402        -0.935254
 H         1.599957         0.897009        -1.099353
 H         1.809855         1.049055         0.809293
 H         1.864339        -1.591208        -1.095702
 H         2.073591        -1.732314         0.752585
 H         0.018504        -0.966727         2.178980
 H        -0.841338         0.650075         1.616946
