19
Iteration:   262
 O        -2.869557        -0.906382         1.707393
 C        -1.777670        -1.403373         0.859432
 C        -1.944609        -2.662702         0.047092
 C        -1.781826        -1.208331        -0.575912
 O        -0.479294        -0.799832        -1.149410
 C         0.415384        -0.575172         0.005304
 C         1.275958         0.695822        -0.033999
 C         1.849382        -0.792223         0.000570
 C        -0.395117        -0.832072         1.264800
 H        -3.192496        -1.657526         2.244691
 H        -0.933754        -3.242112         0.086416
 H        -2.952179        -3.159679        -0.186229
 H        -2.583406        -0.742377        -1.207317
 H         1.306583         1.256733        -0.999202
 H         1.249144         1.348222         0.914269
 H         2.416002        -1.242458        -0.948120
 H         2.273507        -1.116961         0.916757
 H         0.265063        -1.450042         1.842471
 H        -0.773877         0.048160         1.899991
