19
Iteration:  1391
 O        -2.823868        -0.687151         1.509514
 C        -1.753436        -1.335080         0.895043
 C        -1.968524        -2.540905        -0.093834
 C        -1.740534        -1.191633        -0.561226
 O        -0.413395        -0.988308        -1.026161
 C         0.393162        -0.789402         0.090391
 C         1.045050         0.678058         0.109638
 C         1.861370        -0.533176        -0.152849
 C        -0.316657        -1.185254         1.406108
 H        -2.848852        -0.931545         2.452003
 H        -1.228232        -3.257832        -0.169047
 H        -2.968996        -2.823969        -0.353630
 H        -2.563376        -0.628857        -1.143762
 H         0.813290         1.280867        -0.797353
 H         0.988664         1.209564         1.108643
 H         2.118664        -0.670909        -1.205701
 H         2.509482        -0.931012         0.617797
 H         0.118754        -1.990093         1.803340
 H        -0.193378        -0.280363         1.934838
