19
Iteration:  2909
 O        -3.044661        -0.983050         1.438170
 C        -1.822507        -1.335853         0.895822
 C        -1.624263        -2.575917         0.076264
 C        -1.769017        -1.198535        -0.535435
 O        -0.617555        -0.489782        -1.040105
 C         0.371339        -0.526252         0.097619
 C         1.453225         0.468431         0.024621
 C         1.788805        -1.047015        -0.192504
 C        -0.403317        -0.790175         1.425822
 H        -3.443482        -1.618701         2.082524
 H        -0.613995        -3.091242        -0.008905
 H        -2.362693        -3.402316        -0.279874
 H        -2.762004        -1.016119        -0.738685
 H         1.517660         1.102592        -0.941296
 H         1.793269         0.990763         0.896158
 H         2.037903        -1.285564        -1.291387
 H         2.443870        -1.403477         0.653105
 H         0.002559        -1.414383         2.176367
 H        -0.767897         0.183954         1.873948
